90
CSD_code = GIZGOL | q = 0 | S = 0 | Stoichiometry = C26H58NP2RhSi2 | MND = 5
Rh        2.17598068894802    2.75596732821046    2.51428939617278
P         3.28274802684574    1.16092819818986    3.74938941915083
P         0.63627169310116    3.99000904485467    1.29999165486804
Si        0.49215847919633    1.11282278867258    4.86808915102636
Si       -1.08131340946721    1.77242039360578    2.42873389474287
N         0.39723965928500    1.78547961119338    3.29320758232227
C         2.27947295303141    0.46657578675385    5.10248088100889
C        -0.82518321068491    2.96234111625784    0.95628938912939
C         0.20122368966977    2.36811518249827    6.29156876494044
C        -0.66600949085765   -0.36443711806654    5.21307534210817
C        -2.62670716319477    2.29601569468050    3.43373557058388
C        -1.54339233751639    0.08324154372550    1.64966976966989
C         3.55581682011770   -0.37530324914106    2.71851371979319
C         2.24029069855833   -0.63965723370553    1.99339160811283
C         4.68676758747362   -0.27049991103580    1.69979545456749
C         4.93587828190004    1.42450831178570    4.61148048785342
C         4.74065236678137    2.45201933579057    5.73043365681343
C         5.55947816993580    0.14939485774748    5.16889765340645
C         0.86845549641042    4.81629728635536   -0.38588175202145
C         1.09993057805495    3.71953111295695   -1.42768133321270
C        -0.24386033300020    5.74700367601624   -0.85473166336698
C         0.00236720174840    5.39796969983845    2.36952426320424
C        -1.48716744445431    5.71627684231301    2.28445695134098
C         0.35294357272808    5.09281481026373    3.82585451465089
C         3.76385399398023    4.18582233556091    2.52042510939931
C         4.07955535912013    3.18734025397945    1.58850163242267
C         4.18756650557242    3.41188259789810    0.10321515455352
C         5.58519805008498    3.89099679947268   -0.31639666877164
C         5.89149508510859    5.34998855921426    0.02925163738651
C         6.11315541176860    5.61789779160503    1.52460630764829
C         4.96352382007665    6.34593234673966    2.22320660719135
C         3.60432500877169    5.63282176338137    2.13796223882844
H         2.66914226618800    0.82402641472903    6.05091638105326
H         2.33526630084817   -0.62030251649909    5.09658693775296
H        -0.58606269021450    2.35995691028505    0.08263739199740
H        -1.69416009323275    3.57127692074376    0.72238996036642
H         0.32049790201036    1.89352070636745    7.26117082830641
H        -0.80583314038507    2.76883110935278    6.25006411471951
H         0.89292363312775    3.20341333117422    6.24380104663353
H        -0.50635234077286   -0.76699098329854    6.20805772694189
H        -0.52835773233028   -1.17209609598740    4.50241177963339
H        -1.69890948185261   -0.04613484802824    5.15096309043545
H        -3.43486203973281    2.64438753539049    2.79756275926088
H        -2.41059762746551    3.07229296027054    4.15988443545255
H        -2.99797943735903    1.43948410963379    3.98454235080194
H        -2.43755879702940    0.16272229286968    1.03862132952481
H        -1.74427661201674   -0.64555175862704    2.42580520495494
H        -0.74914462287268   -0.31221742148497    1.02508566887288
H         3.77050092470344   -1.20189112707706    3.40765691947650
H         2.32783635977137   -1.49729511849417    1.32675832396904
H         1.96984361457004    0.24513522084484    1.40610540471426
H         1.43413963853531   -0.82026887489421    2.69990500766290
H         4.84858289055921   -1.24120969858643    1.23051924831318
H         5.62385780774989    0.04080002704321    2.15707999211339
H         4.42475017986853    0.43905645741047    0.91923547390874
H         5.61711266704231    1.85277438241780    3.86680817206804
H         5.66633064972491    2.99013208287756    5.92982863821584
H         4.43669310822610    1.96296892342403    6.65337182484150
H         3.96641703268889    3.17317270941641    5.46556416151394
H         6.44794011775578    0.39837061543125    5.74919675866216
H         5.85627939140629   -0.53465940486623    4.37831499674127
H         4.86034884812122   -0.36383284488972    5.82575512250057
H         1.77718739537357    5.42297283791372   -0.30314873654817
H         1.68016324712278    4.09621593370543   -2.26923595443545
H         0.14880811286701    3.35939654405961   -1.81383218290454
H         1.63081555898634    2.87486881238103   -0.98854784111315
H        -0.02445518962471    6.08472777239671   -1.86817087366279
H        -0.32160044140726    6.62700494346046   -0.22166197384544
H        -1.20230906306244    5.23374081529489   -0.87692289498329
H         0.57584568958547    6.27757180149480    2.04510746513277
H        -1.70619190042756    6.57197321464511    2.92393071939394
H        -2.07130545401387    4.87308718856425    2.64034137641284
H        -1.80947087648189    5.96300517274045    1.27791062703920
H         0.24364112364017    5.98277537030951    4.44578128898040
H         1.37904232795299    4.71892761496998    3.91340226728699
H        -0.30641599775331    4.31690309714826    4.20474679628045
H         4.20857405545603    4.08691352152716    3.51306727011646
H         4.77473559948114    2.41621256784653    1.91716095507329
H         3.45625941616893    4.13609848480216   -0.24185322892867
H         3.99178743584686    2.46709346065002   -0.41366027946594
H         5.66618910563927    3.77840666860700   -1.40124713940956
H         6.34399499618824    3.24713186304597    0.13533738236641
H         5.08887570056397    5.98688555211089   -0.34654960991309
H         6.79752755184982    5.62806866834591   -0.51528466050839
H         7.00722793141424    6.23424569228241    1.64922221181297
H         6.30270820604414    4.67300961606836    2.03393066605323
H         4.85854411663656    7.34631817500485    1.79533946438967
H         5.23354967170370    6.46667111149989    3.27572536967018
H         2.91902999833330    6.14499973684002    2.81604297032646
H         3.20995715519039    5.72588418771827    1.12922109845666

