96
CSD_code = GIZGEB | q = 0 | S = 0 | Stoichiometry = C30H56N4P3RhSi2 | MND = 4
Rh        8.96191520305377    3.38326445470640    2.12123384958791
P         7.15407371338221    3.07864089020649    3.48302406876180
P        11.09125602549391    3.96978818222133    1.43579850348767
P         7.87459046398434    3.68327970688521    0.22331741520186
Si        9.47097711478868    2.77179858919126    5.35374058870461
Si       11.40875329598758    1.68019509718878    3.29680394650371
N        10.03614878747515    2.60451388027946    3.74718240655077
N         8.11527716651982    5.05182689111153   -0.79473174907776
N         8.23558633751247    2.38587492104854   -0.83378226622469
N         6.15850549306013    3.59723278911919   -0.00800120442915
C         7.67820800549212    3.42383283516320    5.18870834976095
C        12.16214274967077    2.53288187517387    1.75104151408193
C         9.49010346665326    1.15900893871573    6.38308241724226
C        10.42714480310698    4.06880024389017    6.39098112305963
C        11.06291737350699   -0.14637463243183    2.81987301768668
C        12.77929606202570    1.63921745112286    4.62381171608871
C         5.64010206104071    4.16562007006672    3.28286848606413
C         6.11233140047498    5.60824840417604    3.12832091943694
C         4.60371089051841    4.05093491856688    4.39422179000317
C         6.41211209712524    1.35950041797321    3.48847453456051
C         6.02225840925105    0.80275785954842    4.85292567749389
C         7.41570556135847    0.42397406389242    2.81861528404764
C        11.89644895154894    4.62192424598299   -0.13544550066109
C        11.52607079357097    3.73250010116899   -1.31825278598373
C        11.57442648140546    6.07088558386206   -0.47860447729140
C        11.66864774892934    5.13123972509339    2.78070294527987
C        13.08112202512597    5.69216839151556    2.66923065650100
C        10.61921477223526    6.22293373409833    2.98420294647982
C         8.05501157201761    5.20100463701921   -2.15729241930292
C         8.09353654401328    6.52943776414786   -2.45733662166750
C         8.16803845643822    7.23678231986458   -1.23469377551481
C         8.18335064583025    6.30638934227215   -0.23947454613274
C         7.61913820564106    1.97508658054808   -1.99196806361734
C         8.19372624410275    0.81238939767458   -2.40568308227299
C         9.19460108660591    0.47641445115198   -1.46182133854061
C         9.18894175587840    1.44944659641701   -0.51182193608185
C         5.27906410207711    4.63806468434932   -0.15792167462367
C         4.00685917263059    4.15035568346760   -0.11734631945596
C         4.10097537030620    2.75445700445201    0.08960263309281
C         5.42722162638440    2.45047353971536    0.16744331967224
H         6.98551959329637    3.01782851731472    5.92004686976290
H         7.69329637289734    4.50835816519973    5.29197471027328
H        13.19356610990591    2.84981719730075    1.89769445505404
H        12.13639090688010    1.86799293881487    0.88988801579754
H         8.78836508728942    1.19224756916274    7.21077263229808
H        10.47840929647474    1.01825279651650    6.80495545265878
H         9.26800375150390    0.28138997616511    5.78547008132980
H        10.00155929184583    4.16450378627507    7.38516642126101
H        10.42298089895746    5.05285289281060    5.93373109694823
H        11.46055325244396    3.76318988829134    6.50825014447269
H        11.97559723933593   -0.63113502487904    2.48670246712820
H        10.32658653687821   -0.25038694567722    2.02924342237564
H        10.70238218942028   -0.69583508945560    3.68262949254421
H        13.64305783633435    1.08305749582428    4.27554587525756
H        12.41389014756905    1.14904737998857    5.51724763617262
H        13.11396538960101    2.63179132102388    4.90515923293733
H         5.16534949550650    3.85341675954543    2.34825837776358
H         5.31838542895662    6.23707433867676    2.72913366096501
H         6.96293938007916    5.64415219551040    2.44371240198131
H         6.42522335211198    6.01900962539613    4.08650105806375
H         3.79821579692617    4.76144579209093    4.21076423151945
H         5.03841259613418    4.27895687967276    5.36474937273029
H         4.16802530561001    3.05580505584598    4.42434940710349
H         5.51426621181117    1.43030118657246    2.85876199813570
H         5.55433529960201   -0.17329002824421    4.72405698392148
H         5.31590644475526    1.44505678224943    5.37246610207431
H         6.90333028517786    0.67617065461522    5.47558541234790
H         6.99844471289094   -0.57525407218537    2.69653964666571
H         8.31680290802277    0.35964324633543    3.42439144277727
H         7.69852705206062    0.80622578706431    1.83509023317527
H        12.97510267817024    4.53053985366788    0.04985117336633
H        12.08432510959089    4.03319293282148   -2.20420459567734
H        10.46510378427042    3.82647979630980   -1.54160225299253
H        11.74303739463312    2.68515576629936   -1.12147057592667
H        12.07715955107234    6.34624751777686   -1.40601327287248
H        11.90475967748690    6.75785872311394    0.29455742996008
H        10.50726788253379    6.20568243218310   -0.62257695845866
H        11.63277518168602    4.47981598579905    3.66236830153767
H        13.34823723202457    6.18079642091040    3.60597235909080
H        13.17245403347194    6.42789666331429    1.87470160362501
H        13.80587338296915    4.90081878469925    2.49044614086144
H        10.84224687884585    6.81159010350780    3.87348876656494
H         9.63955199189516    5.74496755359069    3.11695421987351
H        10.56868365182680    6.89722260864301    2.13163514128129
H         8.02222075105027    4.35438648080739   -2.81293662301638
H         8.07679387055495    6.95926904221489   -3.43963524366692
H         8.21380000423242    8.30161451831084   -1.11636176914057
H         8.26016198654095    6.42003039020609    0.82597232036846
H         6.79955678358841    2.52145857798185   -2.41706676129413
H         7.93301960720255    0.25227638647345   -3.28244404109698
H         9.82852842775630   -0.38798221208678   -1.49079997438820
H         9.77305012175185    1.57062043175263    0.38735268508769
H         5.62460045943525    5.64362746836684   -0.29894644920103
H         3.10374930911697    4.71794051547301   -0.22787945779599
H         3.28248312615528    2.06531988162571    0.16432564240293
H         5.91365691562353    1.50371467785692    0.30264350757446

