34
CSD_code = GIZGUR | q = 0 | S = 0 | Stoichiometry = C13H11N2O7Tc | MND = 6
Tc        8.47987084299006    1.88064651839412    4.31444599131806
C         9.61924599969856    2.68672290563142    2.98555530495805
O        10.26975822572412    3.15050676685757    2.16158636253293
C         9.01951111415297    3.24461146076078    5.56416977941707
O         9.31640163932772    4.06496398024722    6.30866272807640
C         9.92173464078514    0.76454584750351    4.91282246928148
O        10.75660927800381    0.04305733074953    5.24934361245477
N         6.97084806164651    0.98722937096898    5.53898244919089
C         6.37876258772515    1.62111332096918    6.54578857169442
C         5.12122237448886    1.28203746343396    7.01053315051781
C         4.44291005049815    0.23940627722864    6.39963087418266
C         5.06191379787221   -0.43025116777420    5.35851304521122
C         6.32494213482989   -0.02386074747448    4.95435723481023
C         7.05542637023567   -0.70093389771930    3.82997493039799
N         7.62560577211604    0.30146498515657    2.91300085834144
C         6.54363422140253    0.96296151497293    2.17088441361838
C         5.87977961313839    2.07599492984364    3.05543601080464
O         6.71058608247363    2.77677330407531    3.69711635133776
O         4.66849473426182    2.18740238739578    3.05107410385743
C         8.58471969959469   -0.31839610268740    1.99522138815333
C         8.01809635518678   -1.36377460846321    1.04215090509737
O         8.86549942837640   -1.57226335679015    0.03548652668314
O         6.97578057679691   -1.94909923164460    1.15372108538394
H         6.93495416238044    2.43616520673418    6.98671295638796
H         4.67845725781331    1.83827465585346    7.82053935734428
H         3.45025665450186   -0.03900817431037    6.71713604913982
H         4.56859660372202   -1.24128805732343    4.84643534440218
H         7.88311887579454   -1.28182270587255    4.25856489583312
H         6.38452575802363   -1.38765296739110    3.30173399929570
H         6.96611744867413    1.48014834097646    1.30357195719603
H         5.78054877106015    0.25726768106527    1.82728416155119
H         9.05957930773332    0.45571263238188    1.38619135251945
H         9.38110504047789   -0.80502837845094    2.57063863940309
H         8.52848651849311   -2.25072748529795   -0.57226686039459

