72
CSD_code = GIZGED | q = 1 | S = 0 | Stoichiometry = C29H37ClIrN4(1+) | MND = 8
Ir        7.28439784736617    0.32195079184066    5.26766320621882
Cl        8.25852467016059    2.13361808554079    6.41814174450207
N         7.66624435044543    1.54592680168844    3.56553798818825
N        11.26023101047544   -0.47211899384068    5.00295651539958
C         6.43233565764908   -1.72257114362448    5.58692462127526
C        12.13835113960977    0.60460716892270    7.47181730013147
H        11.59247833998993    1.19542427978650    6.72769720590365
N         9.20192937921056   -0.08303228692646    4.83530004946123
C        12.90177544906880   -0.49451326057895    6.77163747661186
C        14.25733069037166   -2.56491996889267    5.46548178594184
H        14.79137186807375   -3.36302365038467    4.97587073158947
N        10.06948158771110   -0.79418582706180    5.45968708750016
C         7.14662046880174    3.27230263769335    2.00998845713303
H         6.39685156129288    3.90824814941752    1.56893272885305
C         7.04591913736918   -3.04633889410999    5.28424081149303
H         8.05773552555873   -3.10462954903272    5.67913036473789
H         7.07489444755683   -3.23903249847977    4.21523961390495
H         6.45400268085935   -3.83161018756953    5.75600484621605
C         5.53416760120670   -0.98598641566635    4.76447890055851
C        12.44734131404277   -1.02328893265080    5.55872994894159
C         5.66513821915877    0.10443507916863    6.81147665372277
C        14.05567059554192   -1.04384215449759    7.31274648193033
H        14.43652040517831   -0.67034931464813    8.24838364173624
C        12.57705382156084   -2.62512581085111    3.59043027940934
H        11.67815179064874   -2.07705292963964    3.28645805404144
C        13.10187450713503   -2.05474854335761    4.88667577965838
C         9.81977220630115    0.72801171433439    3.92964111389089
C        11.17159151568711    0.46629524274196    4.04193909621036
H        12.03028716095293    0.86872451762086    3.54806905049167
C         5.07191952577233    0.15944224525447    5.52156119006005
C         4.99292034626575   -1.41476600794073    3.44242776273904
H         4.79918551076303   -0.56311031380248    2.79386731048292
H         4.05029253832193   -1.94312223044119    3.59267730770773
H         5.67863992699940   -2.08649619257250    2.93286989261153
C         8.96353355987143    1.63011058050371    3.19593422694008
C        14.72624468894062   -2.06563575143881    6.66509445605736
H        15.62263279123354   -2.47750713774256    7.10216091752039
C         5.35867395968791    0.97191326934758    7.98067176579257
H         4.62451434156875    1.73096445870245    7.72820700257029
H         6.25802342685744    1.46830193380829    8.34251356013382
H         4.96864449765606    0.35709676821655    8.79174576771435
C         9.40056541435524    2.52483846203593    2.22578244995207
H        10.44576381431014    2.56258352054628    1.96590091342066
C        13.04795905927896    1.56654406035514    8.23536057749337
H        12.47175912350218    2.43320876788289    8.54893735250167
H        13.86728416061218    1.90765508948646    7.60665592190087
H        13.45921684279339    1.10079673168866    9.12642471921899
C         8.47719630891783    3.35959437782510    1.62315038988385
H         8.78723096665835    4.06871681658183    0.87214215623355
C         6.78829650449220    2.35600187821925    2.98251190665760
H         5.76268890848005    2.27529199452871    3.31032985711388
C        12.18212523957835   -4.09144579591256    3.78471365180836
H        11.75897891662243   -4.48802721155880    2.86519075752359
H        11.44235818212397   -4.18433930245340    4.57700775908621
H        13.04604766937349   -4.69333512266613    4.05057555474975
C        13.61339388621797   -2.48116589454687    2.47357165752989
H        13.19548080928105   -2.82814408405997    1.53189724851324
H        14.50062882428381   -3.06920802327975    2.68799562411649
H        13.91308755521107   -1.44172454921572    2.35696153170275
C        11.10945258026634   -0.02396058540504    8.41838307701884
H        10.53304375573268    0.75998619958753    8.90184653847264
H        11.60981465052793   -0.61490161251428    9.18160496812613
H        10.42730923368122   -0.66673268159931    7.86722501225271
C         6.57682552140603   -1.01206890313084    6.83178381348200
C         7.28776062263325   -1.50752064029656    8.04583192784885
H         8.14657205291564   -2.11601418654997    7.77600334409484
H         6.60895128427819   -2.11729400294975    8.64368602629081
H         7.62658407304727   -0.67575453284309    8.65780740764271
C         3.95859372305552    1.07302957964986    5.12055241461474
H         3.79764734949684    1.05645940416904    4.04546890380306
H         4.15467291082370    2.09645971395894    5.43492167985952
H         3.03433999308857    0.74740480359647    5.59996216106529

