103
CSD_code = GIZGON | q = 1 | S = 0 | Stoichiometry = C40H55ClIrN6(1+) | MND = 8
Ir        0.50691319189447   -0.40258303242349    5.66585372562471
Cl       -1.67265850459395    0.52985039849030    5.37088763575327
N        -0.45705467717031   -0.52344453943290    8.74154949619853
N        -1.86222919006524   -2.09043739578741    8.62630687649773
N        -0.78756362491642   -2.90512562683510    4.09166305869701
N        -1.36571201528342   -1.18147400173142    9.41880056290594
N        -2.07133857838682   -3.65818954490018    5.58280270902985
N        -1.71970090984234   -3.79392405184706    4.33402427986477
C        -0.26373186550793    1.81787824859599    9.37077097576674
C         0.42961422252699    2.80155744050858   10.06538512483613
H         0.08047467785539    3.82027402876134   10.03960167855342
C        -2.91313483803421   -2.93399310567334    9.11873797352017
H        -3.08942085993294   -2.65948744328424   10.15732119736366
H        -2.62154285676060   -3.98238329472070    9.06964123253591
H        -3.82848035842986   -2.77487653543937    8.54963716810202
C        -1.56341276157591    2.10724936320298    8.65981117111589
H        -1.61738107883447    1.48986425204531    7.75796082482843
C         3.14159181715443    0.86921837451119    7.53424147988542
H         2.62186745213487    1.60202980204652    8.14441973371141
H         4.14607843538452    1.24502447250160    7.33069755408842
H         3.23682110953429   -0.05285647497289    8.09961270004862
C         1.61358846371164    1.54681497737850    5.55159276121665
C         1.20782506144614    2.90851046019860    6.00346576137211
H         0.19755882801663    3.13702313095204    5.66913290642565
H         1.88147204412492    3.65333877538794    5.57547296367804
H         1.24949625170320    2.98905281206292    7.08745312728713
C         3.69583283927607   -1.55978631505693    5.61724617711311
H         3.46766954815764   -2.45620667451955    5.04630033633902
H         3.73193612656066   -1.82168702703927    6.67202809284582
H         4.68672249283841   -1.21154243202899    5.32071268868843
C         1.27579980712298   -3.77973390470462    1.17166989442971
H         2.08041700489975   -4.44275742203547    0.90097566254391
C         2.12590163207451   -0.16021170666946    4.07288310823048
C         0.80745564298726   -3.75573328809784    2.47839497533499
C        -0.47832921549868   -2.15056469206189    5.17197792911711
C         2.69078945575544   -0.48318926359297    5.36257592044908
C        -3.30482004617250   -2.09264551788198    2.03194609450041
H        -4.17890598545867   -1.52108108339386    2.33299258780874
H        -3.23727320755176   -2.98542233354905    2.65032512602373
H        -3.43441290240966   -2.40594664188330    0.99850332011229
C         0.92576357523548   -1.91729636008102   11.47690364643123
H         1.17527736053206   -2.97087243007208   11.57875374836383
H        -0.13905388851080   -1.82213531790502   11.27851157067304
H         1.13956937162639   -1.41998253550289   12.41964928752092
C         1.75745399117466   -1.28279482850134   10.35412279532447
H         1.53789301052679   -1.80305272351275    9.41257454528227
C         1.34428729406952    0.16472403887380   10.21003144535776
C         2.44774352771608   -0.86083598462495    2.79556052966424
H         2.64908954817658   -1.91452633374008    2.96027151481973
H         3.34242721080810   -0.40875994682842    2.36330778952405
H         1.64188385394129   -0.77608381869685    2.07146947511582
C        -0.84383193897486   -2.06829780280669    1.81298870407042
C        -1.73184010333657    3.56581109474842    8.23703926385702
H        -2.58253909220865    3.64389491544494    7.56483919570631
H        -0.85361041372134    3.93451583931256    7.71561442278496
H        -1.92491029409233    4.20460152919161    9.09549623544240
C        -0.33361064756444   -2.11945892243761    0.52162014052680
H        -0.76842934597420   -1.50499355345284   -0.24903217735934
C        -2.04558916699152   -1.22661107161374    2.16490027515032
H        -1.95350447070581   -0.89888385633006    3.20492664464765
C         1.43331304749340    1.05955388886497    4.19982435950133
C        -3.11017180827053   -4.50064470575698    6.10187626812710
H        -3.41519837215610   -5.17043387212231    5.29972692114640
H        -3.96739331466599   -3.90367147140121    6.41126560334905
H        -2.74457348534641   -5.09046423188765    6.94167974321325
C         0.54506950542594   -5.97096639967324    3.55120199206052
H         0.89825737353559   -6.63319449419897    4.33805110843622
H         0.64994548230009   -6.48209775203930    2.59755141604845
H        -0.51089988094092   -5.76370524396298    3.70936348608272
C         1.99488168624167    1.18070460271946   10.89708110316750
H         2.84994578993955    0.95281975480314   11.51086122496921
C        -1.35177935384818   -2.67258602310026    6.15828429294246
C        -0.24522643645481   -2.88627024618272    2.77317085772176
C         2.84458900386927   -5.00493958209225    3.34627583971524
H         3.22923630555112   -5.49771100077058    4.23627828296359
H         3.43287294529985   -4.10692091027291    3.17051468395830
H         2.98813949858159   -5.67949706304895    2.50699069667347
C         0.71415723796014   -2.96435890424133    0.20659858603266
H         1.08906252422866   -2.99755187077082   -0.80477807429993
C         3.24255063891213   -1.47496719546271   10.66422711352800
H         3.50027651242900   -2.52699831936980   10.56536553669682
H         3.47040427098908   -1.17405160217114   11.68296151606569
H         3.87219281341221   -0.90329505864293    9.98715498253267
C        -2.18824494376227    0.02528300408681    1.30122275409962
H        -2.93572130414374    0.67950818293279    1.74230815839522
H        -2.51221418127807   -0.22170102296741    0.29344199417632
H        -1.25059518413204    0.57162802125120    1.24566561362676
C        -0.31044183350025   -0.97583592395713    7.47305400562018
C         1.55184667297768    2.48762036166236   10.80904021416922
H         2.07299833577709    3.26580925305956   11.34531622081826
C         1.36443635441549   -4.67445237446931    3.54192902574342
H         1.25712513644807   -4.18128276168938    4.51683283315094
C         0.23855016054940    0.51517491066273    9.42988716361318
C        -2.72087026960640    1.72251006665682    9.59206848049566
H        -3.66850591618462    1.86858755432064    9.08010058366265
H        -2.70660060558369    2.35099095811009   10.47982224287987
H        -2.65022305348146    0.68544879067783    9.91225198160691
C        -1.26235511584483   -2.02503064832648    7.41991347919795
C         2.44669034570321    0.63784325977830    6.23663429545717
C         0.78822089998746    1.85035254564744    3.11405264349189
H         0.78506297669136    1.29875361958921    2.17747753148946
H         1.33608645311984    2.78226063815729    2.96783491674055
H        -0.23868892313431    2.10601414701004    3.37449267649479

