41
CSD_code = GIZHUS | q = 0 | S = 0 | Stoichiometry = C14H18N2NiO6 | MND = 6
Ni       -0.10407966524814    3.53941999007756    2.03307011323228
O        -1.52913215858161    5.17127625479975    1.36755936749014
N        -1.31514729585313    1.79878285924545    1.43537679683191
C        -2.36461914614514    1.88229417630284    0.63631918973311
C        -2.85060470181006    0.79355570205292   -0.07409896889416
C        -2.19870147275216   -0.42259632124398    0.05360911543345
C        -1.09923598926859   -0.50911935143054    0.89045946096397
C        -0.68455269477176    0.63007729269614    1.57768325198022
O         0.65773449977699    3.44811972629639    0.34171006215157
O         0.83599848295616    5.64156614502457    0.04406964430514
C         0.98145162161677    4.46824469204482   -0.32988141681725
C         1.57611807350085    4.18285209510287   -1.70242468919723
H        -1.53961844043156    5.62522800765355    2.23368123190852
H        -0.87272859261439    5.64571152831324    0.82159366799805
H        -2.83123931985079    2.85590027491817    0.56890306406207
H        -3.71383190616741    0.89806081404962   -0.71193392118327
H        -2.53805219036500   -1.29049869375006   -0.49266116002444
H        -0.55937189750319   -1.43763192078949    0.98938731252242
H         2.39796042992093    4.86857704211327   -1.88879308481662
H         1.91324809097269    3.15237767625012   -1.75833894851723
H         0.80594438098230    4.35390039160321   -2.45184902675201
O         1.32065765273685    5.17146672818463    2.69869523092923
N         1.10601349107718    1.79878339594046    2.63269487530090
O        -0.86513005239267    3.45010855690502    3.72310496784549
C         0.47562881573454    0.63001409414474    2.49014874690948
H         1.33107381085577    5.62440243720287    1.83196604119514
H         0.66443023232355    5.64671266798688    3.24414472628292
C         2.15581252820999    1.88224841498813    3.43130038354628
C         2.64288622755547    0.79314205187762    4.14038397726901
C         1.99112545388679   -0.42308940333133    4.01256249920611
C         0.89084211905229   -0.50935870115818    3.17678985845319
H         0.35073451292963   -1.43778087721727    3.07831254429805
H         2.33107143321277   -1.29116696304454    4.55814829342929
H         3.50694806916907    0.89736546846620    4.77713920830531
H         2.62243401159609    2.85584528591065    3.49860792766779
C        -1.18951879913543    4.46967493598750    4.39533085997838
O        -1.04469387834304    5.64335624744284    4.02252073322232
C        -1.78395523348016    4.18196343168679    5.76753242966562
H        -2.60563793923609    4.86751117596409    5.95538663379626
H        -2.12120148824414    3.15133204797114    5.82125510409629
H        -1.01346107587198    4.35117062276191    6.51723389619658

