108
CSD_code = GIZHEF | q = 0 | S = 0 | Stoichiometry = C47H52B2O4P2Pt | MND = 4
C        11.48814137237145    3.58368740970880   12.51033886437727
C        10.33257589928027    2.71704415293557   11.90913421326131
C        11.94557874223334    3.08901258175222   13.88840926784190
H        12.62229102039418    3.82816964036940   14.31071354594092
H        12.45902086943317    2.13376258416678   13.81821213690476
H        11.08836594819113    3.00739748558137   14.55147835537793
C        12.70473474565137    3.75468021338903   11.60364631079559
H        12.44068229394960    4.27707582780019   10.68964713543874
H        13.13243818792496    2.78490864817854   11.36066813353408
H        13.45124014320378    4.34909622096267   12.12447236210697
C        10.31500127215275    1.25753189849346   12.35533903523802
H        10.18314711547978    1.17627738481965   13.42919845609569
H        11.24173919566015    0.76778573280751   12.06594355292918
H         9.48307302775529    0.74979962057332   11.87295320313138
C        10.29409620154839    2.77839474095507   10.37516999444986
H         9.36802672788767    2.32287852949754   10.03118887634033
H        11.13491148865382    2.24789725261733    9.93737466897625
H        10.29955092016452    3.81551927751503   10.04572831682395
C         8.64798697379958    4.27720689401406   16.92211026209634
H         8.22953973589343    4.97305508198542   17.66365765950391
H         9.57589765183434    3.85586338290658   17.32723080549232
C         7.62992638908935    3.16325625601178   16.63486511039363
C         6.44246498948346    3.82815726274620   15.92503652833267
H         5.74589912066213    3.06884994615647   15.54959870470625
H         5.90193601057064    4.47630859012365   16.62964228853724
C         8.24933890866274    2.10980518351607   15.71385165705346
H         7.54497487487694    1.29729291725319   15.54447861998808
H         9.15302809454322    1.69827592716363   16.16133705573283
H         8.49791871929387    2.55541132261847   14.75223382943281
C         7.17198557868704    2.52427590635402   17.94494043557176
H         6.73637156416276    3.26991028115633   18.60700938759190
H         8.01464972052551    2.06138359461528   18.45398837956010
H         6.42373895941673    1.75920037942004   17.74949224733607
C         7.83650621165230    8.67001365992883   10.17410348085335
C         6.47888517458098    8.89333978235675    9.95694386903622
H         5.78721697331153    8.06687356875745   10.04279179202875
C         6.02039488975726   10.15219902661526    9.62276111476645
H         4.96484155197117   10.31180599464393    9.45635598704022
C         6.91113062288750   11.20707260654827    9.50300975904912
H         6.55269041859330   12.19276982995239    9.24496536617236
C         8.26295317667125   10.99206901077203    9.71098528881311
H         8.96134227021422   11.81041473141303    9.60840068642313
C         8.72496664195645    9.73332661431372   10.05060487404748
H         9.78152906025291    9.57204692155070   10.21614580706521
C         7.56932274746488    5.94277506131956    9.55162970386915
C         7.19117537540362    4.67146125537012    9.97137260361101
H         7.38123885214936    4.37977386655845   10.99788489046995
C         6.59480079687104    3.79456404440126    9.08303347517980
H         6.30251294563585    2.80836239142706    9.41391415509281
C         6.36778040009995    4.18104694144119    7.77236299463865
H         5.90006534078700    3.49818320363696    7.07772203121142
C         6.73736093454227    5.44859389137241    7.35138472911900
H         6.55864914886638    5.75172489751452    6.32943639593961
C         7.33405192786747    6.32952446735413    8.23519332617493
H         7.60887997010335    7.32249537181299    7.90566968660841
C        10.11480373334897    7.02470331443849   10.32346496044300
C        10.99747803117072    7.37669900619644   11.34201208720238
H        10.59923161854389    7.58047129399385   12.33257895099046
C        12.35686558659117    7.41749494338134   11.10209268867276
H        13.03838168244405    7.69024470775869   11.89398344293062
C        12.84613488246015    7.08589049606283    9.84790804850351
H        13.90992660408011    7.10414519836184    9.65913392610285
C        11.97353383757674    6.71276536645686    8.83896496956941
H        12.35770737891814    6.43875317255631    7.86638683327707
C        10.60848266238214    6.68525336068735    9.07100743931774
H         9.93191980542155    6.38722253876476    8.28208504916157
C         6.04888823268622    7.56359144650207   15.55787304530880
C         6.93674151657271    7.72206421265432   16.61946315737412
H         7.95008769092275    8.04123867529601   16.41152930144884
C         6.53533640014821    7.45461361485682   17.91326118831636
H         7.22845207643573    7.58007882460154   18.73321579275907
C         5.24222376877301    7.01644096464246   18.15951199068261
H         4.92755524561735    6.79932464903521   19.17031542841399
C         4.35839543317571    6.84881882325279   17.10706810881724
H         3.35299545192079    6.50043113149350   17.29750673380692
C         4.75738015067118    7.11952081224376   15.80854049326936
H         4.06657291154511    6.97703322829819   14.98953778119201
C         5.25759570689293    7.62682458155774   12.83533569400077
C         5.11341963960440    6.33220008033504   12.33537122402941
H         5.82992652413774    5.57201670377099   12.64497270311070
C         4.07754169246618    6.03137978141269   11.47174761805305
H         3.97443844174596    5.03107108139749   11.07724476592311
C         3.17777536212069    7.02037942976980   11.10175145976502
H         2.37018189481293    6.79010862963019   10.42183731889304
C         3.31786934676592    8.30609493409491   11.59758907620349
H         2.61738833826907    9.07580789097661   11.30585578417077
C         4.35770521270043    8.61524947352405   12.45887735671895
H         4.47471990114422    9.62598523829547   12.82256127462283
C         6.92148896947721    9.67641204683246   13.94645414216130
C         8.00128696698685   10.22462855752437   13.26630142512298
H         8.69329931205079    9.56006248013627   12.76496404530640
C         8.18917826604193   11.59398996919957   13.23727491937439
H         9.02786009988446   12.01365771403112   12.70157015692541
C         7.30139757000124   12.42434343985960   13.90040745310645
H         7.44267012886549   13.49514360483924   13.87953972780757
C         6.23663153171935   11.88229950530758   14.60353166362989
H         5.55323843768333   12.53152403437923   15.13225922561143
C         6.04581823141577   10.51302540679351   14.63155576646636
H         5.22308730317851   10.08823226307159   15.19112168694597
B         8.10398109095384    5.15766666033222   14.74753453746301
B         9.49175530828868    4.68656179615031   12.71755161611879
O        10.85663471895935    4.84497942927277   12.70991789639007
O         9.16209839964700    3.38444317677097   12.37884778073454
O         8.99679042154170    5.00647505570340   15.76548133593719
O         6.84729296587514    4.60492157200981   14.82002634077132
P         8.35291125692196    7.02708944845857   10.79040540041455
P         6.72472407523654    7.86186955266202   13.88918880001977
Pt        8.23843028812180    6.25184741314156   13.03611896854267

