105
CSD_code = GIZHIJ | q = 0 | S = 0 | Stoichiometry = C46H50B2O4P2Pt | MND = 4
C         7.42862724378205   10.56511576772546    5.02966599088192
H         8.50114959294917   10.55854648456792    4.80072056079795
H         7.30793486112258   10.56346776496510    6.12293090855754
C         6.75844749284960   11.81075477431449    4.43428965475389
C         5.24622814784948   11.61791536979445    4.61623626002520
H         4.99969155880149   11.63833311493205    5.68773297129609
H         4.69267862832296   12.42214697520751    4.11661739288745
C         7.22011237276456   13.06376499059015    5.17657566510261
H         6.97893705582246   12.99675306134919    6.23557198854779
H         6.73275187039075   13.94607039209981    4.76733154916579
H         8.29637872720837   13.18567538485345    5.07616536479922
C         7.09589115750010   11.91721173889660    2.94559142838905
H         8.16830702868738   12.04589809709924    2.81150658003484
H         6.58456317440816   12.77033082049513    2.50331072631201
H         6.78704092037843   11.01307259552953    2.42444015627671
C         5.32454821136629    9.75085945448473   -0.29227957422886
H         5.37439655377799    9.02836827165554   -1.11962806691422
H         6.05871940505926   10.54347172098640   -0.48027686681324
C         3.90779115889341   10.33848689529711   -0.21029773472725
C         2.98159964796651    9.19157457673544    0.21707314905388
H         1.98086002288954    9.57364861604532    0.45214306806910
H         2.88888311776172    8.46158068580115   -0.59986985250303
C         3.86245766519443   11.45173196308694    0.83800741836829
H         4.11134504432940   11.05081841100647    1.81825794211544
H         2.86458553079673   11.88446653446798    0.88268089257490
H         4.57215612600310   12.23779835030719    0.58616907029296
C         3.48526996993740   10.87605270635812   -1.57686415367115
H         4.14831149002932   11.68072719162383   -1.88732472865091
H         2.46975841065546   11.26338391536552   -1.53101262376771
H         3.51947878447332   10.09125719840505   -2.32984481610606
C         3.51136839368623    5.53261826684065    0.79680651896914
C         4.40673318481442    5.70654511724637   -0.25533248548403
H         5.46662698533826    5.75122067952944   -0.03830128043575
C         3.94736281999466    5.83962729887908   -1.55065064211403
H         4.64694689040545    5.97507557201038   -2.36363074846432
C         2.58440151858362    5.80765578602468   -1.80710839017809
H         2.22162140570862    5.91770854624309   -2.81908217221663
C         1.68970853019670    5.64520328160686   -0.76328956156357
H         0.62743567391964    5.62821985715357   -0.96190965828549
C         2.14814965672763    5.50839896422122    0.53626880866207
H         1.44518303176419    5.38981383885742    1.34872315427047
C         2.77508448772355    5.18389122005092    3.51820172568036
C         2.17844203707166    6.37352804013343    3.94221101324940
H         2.57740684627680    7.31984842393558    3.57342054893906
C         1.10013165904933    6.33924286224853    4.80488385467294
H         0.63838913701759    7.25994481007435    5.13151590277695
C         0.61330867856076    5.12224475787693    5.25835956089178
H        -0.22563456087252    5.09398913384903    5.93843808642790
C         1.20715376698167    3.94284233753631    4.84549892653950
H         0.83220363803964    2.99506144928973    5.20415173151262
C         2.28829079799866    3.96909454260102    3.98024037607689
H         2.75545891017626    3.04353247536851    3.67567468571873
C         4.96684391254652    3.74303412966651    2.33947130346034
C         4.32603609160743    2.70250368148666    1.67385996987486
H         3.37293970241959    2.87931192044297    1.19407883244162
C         4.91147006297532    1.45082422458738    1.62065348631464
H         4.40928223496769    0.64346035304825    1.10691282286571
C         6.14067068388658    1.22881879630200    2.22235936855584
H         6.59272538696827    0.24862633894031    2.17863733479111
C         6.79280502944554    2.26588261737533    2.86793049923970
H         7.75705755253177    2.10047881950947    3.32682328984789
C         6.20887381269708    3.51920532297381    2.92140151490317
H         6.71776654387758    4.34169159227298    3.40764747185214
C         4.44266544754030    5.29424325284137    6.51845540681727
C         4.66013236799508    3.96952309702028    6.14618664259212
H         5.40171792371033    3.74366641451638    5.39209186015426
C         3.94307379690691    2.94720976278631    6.73526877473625
H         4.13089399311087    1.92330882836788    6.44494916699334
C         2.98090507330077    3.23444853138533    7.69004770702299
H         2.41791613369200    2.43588939060061    8.15062597831546
C         2.74108300615461    4.54999725447840    8.04783995737933
H         1.98710974850876    4.77956202985055    8.78713796647931
C         3.46378025603560    5.57527790723700    7.46517589970970
H         3.27302023066423    6.59904767400737    7.75386452851641
C         7.05962059186978    5.98839511104462    5.70446094618560
C         7.56426864028830    5.21954758184921    6.74865560841963
H         6.92710898131093    4.95697893138942    7.58263543511804
C         8.87743901371270    4.78485669357825    6.71239956930363
H         9.26851153405969    4.18820596004674    7.52438951940325
C         9.69102546915257    5.11222972046421    5.63909710009492
H        10.71535697738834    4.76882491208092    5.61698624448560
C         9.19110454689143    5.87513447428050    4.59546179782930
H         9.82484621713107    6.12560313327455    3.75740160537700
C         7.87836156319353    6.31054949959546    4.62473462619581
H         7.46247083882616    6.91392683889562    3.81593864958805
C         5.33538865831276    7.94922460147102    6.86346775257306
C         6.36673247604461    8.20923657246544    7.75473037662548
H         7.24114773724441    7.57500945750511    7.77303647126581
C         6.28678474954558    9.29731991794985    8.60874517562675
H         7.09736848828288    9.50090286515058    9.29441753267955
C         5.17924565506029   10.12724405519795    8.58333616482160
H         5.12413593625354   10.97694777565657    9.24897320205932
C         4.14704608832380    9.87419027826390    7.69188966990769
H         3.28496627793876   10.52567178198400    7.66343700239717
C         4.22938231197209    8.79649174155127    6.83172080950581
H         3.44989373149690    8.61282158074301    6.10258066071174
B         5.60790132641691    9.30120140233310    4.02960558708452
B         4.78423298583436    8.49630747789920    1.69624955572349
O         6.88770467828666    9.36732839227760    4.52006371892300
O         4.78875633274518   10.39904774176316    4.07080418325196
O         5.71561749018782    9.10113082861219    0.89881907916546
O         3.45167962844249    8.52133315592830    1.36466653087104
P         4.24371195638214    5.41994399636252    2.46578920256696
P         5.35017100953713    6.60703062157422    5.62528708803971
Pt        5.05707465556378    7.43855987373705    3.41308907461598

