103
CSD_code = GIZHOP | q = 0 | S = 0 | Stoichiometry = C50H44B2N2O2P2Pt | MND = 4
C         7.72017831055477   10.88232540037032    9.75627663006716
C         7.88328572200469   10.76582732219890   11.15403777660125
C         7.37213588439646   11.72878452401817   12.00513978545481
H         7.48303213792571   11.64512744297448   13.07596817691238
C         6.70058127888651   12.80717865731835   11.44824732157095
H         6.29052795353083   13.56839087672326   12.09638622852307
C         6.54656352619233   12.92502658307542   10.07541424837512
H         6.01992227012362   13.77729365588205    9.67035688601620
C         7.05605263576262   11.96647633636089    9.21166509436376
H         6.93073025790512   12.06847917845229    8.14366199438654
C         8.27355266359783    9.58840378503572    7.73888624074043
H         7.26881037159182    9.73285348579732    7.33162109120049
H         8.59981053785808    8.56801038429016    7.52787809516824
H         8.95230130259010   10.28748518302208    7.23998042065079
C         8.91171493246503    9.22002230386775   12.75881391230708
H         9.42260944111763   10.04127088138178   13.26852886453468
H         9.58800635459799    8.36686988334334   12.70880562862354
H         8.02206771201663    8.95146562468448   13.33785226858343
C        13.37661679342532    7.69982338248229    9.90691565419312
C        13.13181275681531    7.83148977382756   11.28029914565287
C        14.16407492410876    7.96851820135647   12.18443850546925
H        13.97247978668018    8.07049208962140   13.24085814779462
C        15.45493811350216    7.96226564206074   11.67442141458946
H        16.28897122653618    8.06317772346740   12.35309521179570
C        15.69728013894847    7.82710568372452   10.31567580862251
H        16.71626387244534    7.82344163420707    9.95790588859056
C        14.66014362035295    7.69523881474787    9.40279508606690
H        14.84436805937917    7.58717541822983    8.34571183869409
C        10.38140143740939    4.60634885232156    7.75250069707039
C        10.57187784439734    3.40930967914138    7.06975063502920
H        10.59152274018864    2.47470955227953    7.61360741968165
C        10.73395100530536    3.41905148496745    5.69577792101491
H        10.88286460344688    2.48857926737339    5.16684484539195
C        10.70838564759105    4.61609328720060    4.99725606080090
H        10.83471162766893    4.61549462952767    3.92434963807044
C        10.52218592243694    5.81123917339788    5.67369711032667
H        10.50334592880376    6.74437341151946    5.12997005502545
C        10.35752882888154    5.80644067231666    7.04689867349039
H        10.21972343589918    6.73483202096064    7.60182133799481
C        11.83816687292147    4.51589822038247   10.19601238183317
C        12.94886170206726    4.30025087479969    9.39135451914295
H        12.82940936260663    4.17718777633211    8.32443963707687
C        14.21393619410388    4.26436629478108    9.95257258953423
H        15.07528051601764    4.10776423390539    9.31969381332674
C        14.38078918357476    4.43915103554305   11.31496969107258
H        15.37067731746453    4.42127415651607   11.74559105795709
C        13.27637269779831    4.65736378173981   12.12335682043099
H        13.40476593723058    4.80782404951552   13.18531171350225
C        12.01387467042890    4.70477908475568   11.56582302536460
H        11.14949506994546    4.91460523948013   12.18376227023890
C         9.39479775961634    3.09611663670790    9.92271892760469
C         8.24901166834508    2.73643040654420    9.21678320262227
H         7.87127628235113    3.39289117052467    8.44436339617910
C         7.59964750084610    1.54890355988992    9.48847213683611
H         6.71812083644349    1.27813790182118    8.92527225834083
C         8.07445708422997    0.71148759408416   10.48500937204630
H         7.56624045275830   -0.21655612672649   10.70149614075176
C         9.20219513448630    1.06993042824293   11.20292370758960
H         9.57537419049781    0.42090099873295   11.98199877161584
C         9.85976089054572    2.25551809107638   10.92704530266591
H        10.74452840056585    2.52101185662564   11.48755198921367
C         6.94231150737645    5.07823923973400   11.19463653794351
C         6.07656448915433    3.99474947890852   11.22242557543910
H         5.33723447571038    3.86766121216963   10.44502991754120
C         6.17297810276112    3.06092642900070   12.24040405503588
H         5.50083612079671    2.21529067442155   12.25521097950977
C         7.12861951293286    3.20049767808434   13.23131000102248
H         7.20057434775927    2.46501027182702   14.01890010077302
C         7.99941464367099    4.27906199767915   13.20703711154323
H         8.74912824311998    4.38562759602040   13.97790322724639
C         7.91066491775544    5.20968315434083   12.19063723329574
H         8.59665271440367    6.05781553765840   12.14383780101314
C         6.00256381215757    5.69335854622933    8.53835227103852
C         4.62602534761088    5.51821368031831    8.64630614604767
H         4.11806567905866    5.81039118718629    9.55546744204049
C         3.91243960559284    4.98805875523393    7.58720087734643
H         2.84452941797962    4.84856651212920    7.67473339332226
C         4.56180879416042    4.63740554116142    6.41324086776824
H         3.99912709909067    4.22204608408710    5.59013395070070
C         5.92751467598121    4.83163790083560    6.29158831009772
H         6.43466167297682    4.57332233760906    5.37320115978714
C         6.64355010145198    5.36207337317664    7.35006240013488
H         7.70929121947994    5.53296772285569    7.25881249782831
C         5.89350887147274    7.64075994338963   10.56132258755630
C         5.35242545464890    8.55950673095048    9.66584264015528
H         5.50608009283319    8.41598379460965    8.60453306048364
C         4.63069532788293    9.64333544146895   10.12491945064493
H         4.22179331348417   10.35642394178840    9.42473496298002
C         4.44625480850681    9.82623096456275   11.48551323867625
H         3.89674096417539   10.68261781569946   11.84547945373194
C         4.97534057445776    8.91304637794075   12.38088931092203
H         4.82933112638760    9.05231227674613   13.44261964440989
C         5.69946249447666    7.82608489251745   11.92461947049090
H         6.11648237274465    7.11903877431894   12.62852666484337
B         8.81170790630519    8.92347263804085   10.18286778548666
B        11.19180886763648    7.58191271269951   10.24502631472483
N         8.28387795262128    9.77703228691929    9.16376650794020
N         8.56111783972408    9.59839267340829   11.41626420167875
O        12.19638213468368    7.56097140729219    9.26362782375301
O        11.79807614931213    7.77205789109391   11.49468816918660
P        10.14260473345358    4.72389929341079    9.55369225253852
P         7.01517875313060    6.36149039317363    9.90181316912188
Pt        9.29710242112360    6.95169566833574    9.93028694505595

