63
CSD_code = GIZLAE | q = 0 | S = 0 | Stoichiometry = C32H23O6PW | MND = 6
W         3.12501873392742   21.37992128399602    8.57556121633387
C         3.77553679301235   19.95414765709319    9.81875715647324
C         5.01360880468205   21.67965756562550    8.00458072811773
C         3.34228391888383   22.72253409645612   10.02365741539817
C         2.53244347162966   22.77048146974492    7.27234955703152
C         1.22408207292576   21.08082593272859    9.14318484488886
C         2.90281121356081   17.99653493032272    7.07916008855850
C         2.30561912784938   17.54833706913396    8.25373586042900
H         1.81789691769094   18.25965769108332    8.90839272012125
C         2.31904293089214   16.20180600951262    8.56703665720838
H         1.84865517733208   15.85621106692152    9.47546771490939
C         2.93541756038635   15.29837505822919    7.71524835164353
H         2.94800672663959   14.24696970771362    7.96075430498141
C         3.53637724181882   15.74225001198668    6.54886045770119
H         4.01889634742340   15.03697900587709    5.88769218309905
C         3.52295882269347   17.08787360527691    6.22858227029659
H         3.99793089933306   17.43997730645504    5.32290528789799
C         3.86624967002212   19.96235548202436    5.26946975406404
H         4.94198967470514   20.02245214136847    5.35660732879477
C         3.20289306780934   20.09695355954334    4.11997838721190
C         3.86005216603830   20.35551905392850    2.80755348197134
H         4.93728871161634   20.23573434056918    2.89327687830574
H         3.65546974833087   21.37614017735925    2.48477942905051
H         3.48651174500452   19.67813888672005    2.04183411074500
C         1.69439753780532   19.97560570976336    4.21465993601084
C         0.98381092251169   21.10312144751298    3.46055578089818
H         1.25864157760303   21.10806248646905    2.41019445798748
H         1.26415276087766   22.06155080579034    3.89382468125326
H        -0.09482613238195   20.98440013604682    3.54326158689727
C         1.24354705233474   18.59373518214244    3.76187458316310
C         0.53822850003003   17.94407969392376    4.71346038275812
C         0.41390640711123   18.77980911929587    5.92075811301409
C         1.29149672005069   19.98496518389489    5.69903514629282
H         0.79387336661832   20.90504278582991    6.01729958788001
C         1.63331163925994   17.99862252606492    2.48030004397847
C         2.41439888283931   16.84293018220951    2.49725444064113
H         2.70615794503683   16.42111864254682    3.44739490936622
C         2.80928938590521   16.24581305319980    1.31587853313228
H         3.41867620120831   15.35486511560822    1.34374334916948
C         2.42048507322328   16.78285062876804    0.09938532716289
H         2.72642986550428   16.31405054691436   -0.82361184137051
C         1.62744038118378   17.91718349192745    0.07261143318275
H         1.30711057143812   18.33153773741484   -0.87195115491183
C         1.23693198367609   18.52462106145407    1.25282811435654
H         0.59370649214463   19.39059507833009    1.21913187439436
C        -0.06676063942914   16.61643349209639    4.62196729180037
C        -0.64793599916209   16.16377263762492    3.43840504064470
H        -0.67680090603507   16.81007753611182    2.57399842018340
C        -1.20561167656804   14.90162797149125    3.37218326572878
H        -1.65514481069946   14.56305340934831    2.45008390978425
C        -1.19326265308634   14.07393049680694    4.48307285557110
H        -1.62741711212019   13.08659361540128    4.42738855682052
C        -0.63204907517101   14.52235581169567    5.66673639532548
H        -0.62879739610836   13.88618339829664    6.53953807128017
C        -0.07708362766857   15.78602263132931    5.74070650094015
H         0.35379620756781   16.13352872969010    6.66582886499146
O         4.19146351708431   19.15119334079473   10.51459546035160
O         6.09210592838924   21.85125130135383    7.67023537629530
O         3.47164565957727   23.50079570645534   10.84961081229764
O         2.21724703097775   23.52994688062569    6.47766858680399
O         0.14782596891338   20.94775562404733    9.48933574929931
O        -0.23319679351748   18.56201366760599    6.91678870320457
P         2.83966769884945   19.78387002446138    6.73274066818419

