109
CSD_code = GIZNAG | q = 0 | S = 0 | Stoichiometry = C49H54FeN4Si | MND = 4
Fe       13.55927767248102    2.51450784985596    2.75035279659354
Si       12.26947515771199    1.99022189144426    4.52548158068954
N        14.40388831033630    4.78156633578854    4.38489407562995
N        13.29300877594245    5.50081527869225    2.69559775854133
N        14.68012538402281    0.03650701581518    1.68343213699535
N        12.53591947430917   -0.05792778436281    1.57981111049674
C        13.69189571603047    4.34866125050908    3.30993773652696
C        13.55698041229933    0.70981957391833    2.04270076188595
C        15.06886192232727    2.76064684584278    1.32180965409711
H        14.66896181876202    2.38018319009228    0.37713472305491
H        15.42092734629094    3.77775748357333    1.15802766906511
C        14.45421052294686    6.15330201363345    4.43230737669893
H        14.96078967062400    6.67858601513211    5.21551293436426
C        13.75682801083077    6.60774301271899    3.37273722436410
H        13.54011002545102    7.60390334872946    3.04437447175064
C        14.96791208402697    3.96486740728595    5.39564160509616
C        16.34906602399203    3.94468631491763    5.57506446354137
C        16.87905828883378    3.14934759324812    6.58175794088971
H        17.95159476652858    3.11541201014109    6.71193925441504
C        16.06118249935701    2.40049569147608    7.41393684255534
C        14.68879876264103    2.46631470551635    7.23623376161041
H        14.04339697431548    1.88867764185673    7.88266748439053
C        14.11226670494368    3.24396750930803    6.23988473732268
C        12.65971566926573    3.22914141613488    6.01807381589959
H        12.28653748990282    4.21644886758564    5.75399197505404
H        12.14462663363795    2.89927762987058    6.91731906364982
C        16.63780560569973    1.51206861621345    8.47431794486532
H        17.70760085702006    1.67364039077584    8.58311659703815
H        16.46846797341070    0.46861984409180    8.20808051593870
H        16.15515479047165    1.69356961694228    9.43330519690895
C        17.26301981265927    4.76471877181049    4.71333126593404
H        16.83012703132800    4.93076054114277    3.73037086437947
H        18.21835552460274    4.26031479039789    4.59545003235170
H        17.45006987808161    5.73635254919107    5.17400147119710
C        12.44789897243058    5.64353075598215    1.56826702979977
C        11.06742995518507    5.47694571529894    1.73621051745654
C        10.23251170541717    5.69284011412282    0.65405125068098
H         9.16535887215872    5.57423070501076    0.77877137200709
C        10.73292610108836    6.07177797485594   -0.58678263726984
C        12.09939831328059    6.24128022057452   -0.72400238595249
H        12.50679471394542    6.54524106672391   -1.67774676811051
C        12.97134197347570    6.04435744902434    0.34128648527872
C        14.43748420651935    6.27421130694360    0.13216916730540
H        14.99768516632883    6.15824869671290    1.05482832207566
H        14.60948086005308    7.27726402453161   -0.25659871887699
H        14.82232140414555    5.56309706087212   -0.59740943918559
C         9.79949692681876    6.29415023467053   -1.73805168782641
H         9.06580946057686    7.05973433675016   -1.48930509161145
H         9.25708946826158    5.37796559456710   -1.96946294459461
H        10.34230889344986    6.60832185418651   -2.62556645398338
C        10.51870445363433    5.06919572716174    3.06505360427398
H        10.87833630628543    4.07175361828570    3.32401706181987
H         9.43253392446894    5.06144715248675    3.04795208650145
H        10.85027669642546    5.75313827906424    3.84509330365195
C        14.36816208652642   -1.09986009917616    0.98510362967025
H        15.10736070251896   -1.74445151921822    0.55924943552920
C        13.02152253091648   -1.16634196160909    0.92199521124262
H        12.38140716410077   -1.87753876979785    0.44331173088893
C        15.97310507292591    0.52855986393991    1.96439804187269
C        16.15655518112540    1.91985996004165    1.80670587918841
C        17.41153433407150    2.44223822926453    2.12731119100642
H        17.58160173588634    3.49987440195311    1.98433574429040
C        18.44207246476577    1.64371963962056    2.58757986864092
C        18.22194885210727    0.28084274681118    2.72992428428159
H        19.02255139038502   -0.35122049015754    3.08819500214811
C        16.99101839052563   -0.29414860621547    2.43132601593136
C        16.81401884989712   -1.77134096326165    2.64146385235471
H        15.80179228586448   -2.00856466113534    2.96300478459852
H        17.50627353629880   -2.12148299062107    3.40404551499745
H        17.02998795569568   -2.32377558561238    1.72544800087628
C        19.78335934414993    2.22325001232443    2.92995086664404
H        20.57796058691436    1.67307201213931    2.42744844603924
H        19.96080290564334    2.15386960928370    4.00355396665391
H        19.84407364273926    3.26829254720927    2.63506689472012
C        11.16253421418427    0.23085419505275    1.69359495292336
C        10.29338742429774   -0.70632824487153    2.25549939630851
C         8.93756989718354   -0.41301393324100    2.29566610410312
H         8.25905464810426   -1.13604742074017    2.72610105784117
C         8.43624786589145    0.79090824042914    1.82353996858400
C         9.32434767058738    1.71643726949123    1.29616218708344
H         8.95282197445567    2.66262324811612    0.93089051955289
C        10.68225116046864    1.45356245018896    1.21731734730316
C        11.61295921097091    2.44953727320270    0.59877895118463
H        12.19953913724643    2.98600728600281    1.37270946268010
H        11.05300056070384    3.19679360135690    0.04247388086378
H        12.30485179566650    1.95616764623052   -0.08257599140443
C         6.97299168423089    1.09739334914734    1.92084338885993
H         6.37663581457059    0.19790998216569    1.78626087910548
H         6.67873744734021    1.83224313172947    1.17551111612044
H         6.74808851783559    1.50495432054180    2.90678788410513
C        10.79594238572580   -1.98854204407179    2.84967202876704
H        10.84735812344038   -2.77817277543022    2.09990889348710
H        10.12154023913723   -2.32256217414084    3.63469750575680
H        11.78678484271386   -1.85283391438950    3.27817264505633
C        10.43274592927828    1.57459838332675    4.94038874727753
H        10.09240160299327    0.71324176568861    4.38203390341700
H         9.78063954954390    2.40190243672088    4.68338835038797
H        10.29706040185425    1.36785351982769    5.99744185688690
C        13.29021165824354    0.48797945895912    5.12423320868823
C        14.66347621394419    0.60093191270644    4.92428417894807
H        15.05059948717209    1.49143403492323    4.41979278952725
C        15.53890464597085   -0.37375548351344    5.35990713986923
H        16.60306624046889   -0.24435430200314    5.22458026606278
C        15.04554818590078   -1.51455888495166    5.97446232168004
H        15.72413046713995   -2.28423040252426    6.31706421968835
C        13.68007481715953   -1.66667161322795    6.14351755614844
H        13.29183315727373   -2.56233110670375    6.61118829030107
C        12.81542460250375   -0.66679909100359    5.72951918187720
H        11.75192344769657   -0.78399260785753    5.88209653216484

