81
CSD_code = GIZQOX | q = 0 | S = 0 | Stoichiometry = C40H38NPZr | MND = 5
Zr       17.67815707945434    4.60667377590510   11.65820946626285
P        19.87767394520405    3.00350813464918   12.17051113222533
N        17.96353286069120    4.51625724449131   13.78342273016593
C        19.88930752061419    3.08687338040057   13.98577618061628
C        17.03089827881255    5.40101896162835   14.47115446080485
H        16.36102301496829    4.83774961617793   15.13991953493562
H        16.41155562524893    5.93682110567579   13.74303372173242
H        17.55709120303268    6.14904221831898   15.08486958663708
C        21.57731968637847    0.72613571314787   12.13082367404427
H        20.78391136958080    0.19335034497340   12.63725289902836
C        18.62662765340070    1.66610368320187   11.87413701080050
C        18.75812917107279    0.81358875257030   10.77611815836844
H        19.65403514855306    0.85558357657042   10.16957099383006
C        20.87928413473238    2.50093637075235   14.76140649450135
H        21.66341093198398    1.93097323975922   14.28455472401768
C        22.42606161585534    2.74302899197649   11.13360107657846
H        22.28183078005291    3.78228465977356   10.86978413649740
C        21.40482548451952    2.06635069469809   11.79064901970894
C        22.76009536783589    0.08135514377458   11.82058563904573
H        22.89160787915962   -0.95689923822981   12.08902070410935
C        23.77715927252320    0.76292890044333   11.16969714436430
H        24.69892189902388    0.25375891549660   10.92988912657820
C        20.88388135118225    2.63817891493523   16.13643910140134
H        21.65483010894559    2.17150585676569   16.72973186279305
C        18.87920435493121    3.90217427436913   14.57494894376552
C        23.60934329750601    2.09373285201089   10.82640000840895
H        24.39974110932130    2.62465970741139   10.31655182795222
C        17.47236916778335    1.57524986008928   12.65552983365985
H        17.37357619596348    2.17723596007068   13.55294767733785
C        18.90995307141984    4.00612206268535   15.98504261422123
H        18.16012359147984    4.58399889703402   16.50167833999533
C        19.88317006375813    3.38785359192401   16.73638647288015
H        19.86683321273253    3.49922516000229   17.81168080349370
C        17.76578760328857   -0.09795722286559   10.46338433253544
H        17.88684012755194   -0.75049188318766    9.61107863611053
C        16.62026669110012   -0.17354904745604   11.23904213302419
H        15.84429398499845   -0.88248800907283   10.99260246921250
C        16.48346398567950    0.65473767492578   12.34061177034025
H        15.60391670880162    0.57753645877562   12.96388004439770
C        17.03686097233772    5.47511792711724    8.02502562909368
H        17.75671657311419    6.27176002634847    8.17209829055367
C        18.36578268253927    4.01738275711426    9.57400141134446
H        19.22640314902182    4.64659968890871    9.30738933677389
H        18.66993129336930    2.96364792170677    9.52583597311081
C        21.54964197809593    6.23017387189668   12.70522123538941
H        22.04255448547473    6.03885330995963   13.64821424193915
C        20.28653575381659    6.76867954020229   10.30442094923351
H        19.81270134889872    7.02922758619317    9.36528438941198
C        14.82355895017133    5.30707041277652   11.78822023204154
C        15.50285256236464    4.01224110977573   11.67120244119141
H        15.30091467419868    3.54705159337902   10.69586970514704
H        15.18605606987123    3.33267513052361   12.47499742295301
C        18.04623469541539    6.82671791521688   11.43549920059450
H        17.68465368107375    7.29984440505596   10.51543068343745
H        17.64613011316749    7.34880651085254   12.31575639598778
C        14.11402163582808    5.67811631120908   12.94150807567071
H        14.00860887971425    4.96399233145262   13.74942825380450
C        15.22007557249613    3.43819477351412    7.58792519581502
H        14.51698947688272    2.63648041163254    7.40858650162857
C        20.18484297019407    6.44045094716345   12.67942233812192
H        19.63408192504063    6.45929594013767   13.61414006788296
C        22.29376690677304    6.28038780918922   11.53478714994727
H        23.36203394746718    6.12464330623107   11.56016662114799
C        15.03224209025469    4.66809815519532    6.97465833828239
H        14.18576562229659    4.83064784796549    6.32498149641949
C        16.30378759300090    3.22578854307404    8.41532712145640
H        16.45430510081021    2.25058389522467    8.87037806078767
C        21.65194685148467    6.56377161828319   10.33846109052246
H        22.22573479675104    6.63692328664882    9.42470530480999
C        19.50185956394213    6.69386791535999   11.47041067415701
C        14.88015121471289    6.24561694179555   10.74077154593955
H        15.36692418388560    5.96778811969624    9.81122353477468
C        17.23801497965888    4.24532586057057    8.67358448133599
C        13.62599804367295    7.84467594489259   12.02734662019957
H        13.17049546099080    8.81891900729323   12.12024947156630
C        15.95353800642847    5.68054473597546    7.19308720046798
H        15.82619159326112    6.63707434853157    6.70532759687801
C        14.29240814882715    7.48835468249876   10.86322313253648
H        14.34668202345860    8.18782972370490   10.04093515284564
C        13.53351474520245    6.92677147635295   13.06020720606854
H        12.99453513575893    7.18225706513797   13.96186574257314

