101
CSD_code = GIZREP | q = 0 | S = 0 | Stoichiometry = C48H44N6PdS2 | MND = 4
C        -1.67646519317966   16.75691713576873   22.58581684472155
H        -2.61108334748054   16.61523140845342   22.04844485582424
C        -2.75329278901428   15.50571230406435   25.54811805545708
C         1.81816688980769   15.32331173550566   22.61657107599499
H         2.75036264788821   15.39377475104106   22.06096263828874
C         2.96195168643802   17.03786477099011   25.32064370088142
C        -0.61162929851968   17.52396558383987   21.99688551157498
C         0.19892722068540   18.31789386550712   22.82758439970186
H        -0.06193676962894   18.42878473305808   23.89205880548886
C         1.24542484053417   19.04727561250116   22.31000496612480
H         1.83700572486430   19.67852457100746   22.95747881083149
C         1.54365994507564   19.00418684940565   20.94408946300727
C         2.65216688283347   19.70710277691549   20.39380799776148
H         3.28969783173767   20.26009971617432   21.06915453407002
C         2.91067904428139   19.68263947329221   19.06496140643505
H         3.75877063299437   20.21459503223801   18.65739260313183
C         2.06990829892692   18.96663086669660   18.16395407376417
C         2.30763767384648   18.94182685464333   16.78835032271882
H         3.16050890546719   19.47429867867316   16.39203230708558
C         1.46481638171619   18.25049143687475   15.93705081254176
H         1.66419495442751   18.24492437637742   14.87496817398850
C         0.36937797805818   17.56921014934433   16.43387180904213
H        -0.28846413099738   17.03161586800029   15.76609077404193
C         0.09906018399755   17.55901903405096   17.80354890124575
C        -1.00762756746929   16.85364536906787   18.35301290070197
H        -1.66217202955075   16.32230178394143   17.67686830404370
C        -1.23209212338164   16.82627707257329   19.68786663769215
H        -2.06290474245880   16.25590376954255   20.07180389959373
C        -0.39817199422934   17.53491233509752   20.59971256165632
C         0.69840919552903   18.26478744757294   20.07807689859101
C         0.95556348707476   18.26251446343388   18.68466449636727
C         0.74705241646931   14.50761096893982   22.11669710480482
C        -0.09902559409387   13.84982406591049   23.02487824286863
H         0.13243353537210   13.89113272730288   24.09983289654240
C        -1.15392779701541   13.08439271946798   22.58457662967880
H        -1.78252753605143   12.56758215371888   23.29358997545157
C        -1.41930254241626   12.94680113310440   21.21820176348398
C        -2.53125357604326   12.19711184142770   20.74171199940154
H        -3.19258967859595   11.74972900194099   21.47072782591248
C        -2.76301344478882   12.04802656633109   19.41603285588164
H        -3.61382329483730   11.48193059790269   19.06390677187501
C        -1.88987853475208   12.62260114628237   18.44714229385571
C        -2.10045004190597   12.46892611073776   17.07546273894091
H        -2.95602354871661   11.90345196167674   16.73454968935286
C        -1.22777389052928   13.02671515773233   16.15875951128137
H        -1.40620809739904   12.89439545003449   15.10118208495439
C        -0.12951136653154   13.74999869150618   16.58493077990143
H         0.55123466777418   14.18330283375879   15.86618131208124
C         0.11459453267144   13.93659521474341   17.94692037423568
C         1.22215137241592   14.69169155025108   18.42318869582877
H         1.89772490002084   15.12181157591862   17.69748644702188
C         1.42305058560226   14.88898725283196   19.74758726282725
H         2.25622914845108   15.49375959514910   20.06834812355745
C         0.56028099414199   14.31921761583524   20.72723523310049
C        -0.54054871882658   13.54686510354078   20.28118752957003
C        -0.77138443090055   13.36934355552954   18.89449670476004
C        -4.87632498332811   14.42265076261205   25.20846353511557
H        -5.02971111028851   15.10990514441593   24.37326758478624
H        -5.80371288845230   14.35437966986746   25.78072023768043
C        -4.48439160796959   13.03871224543521   24.66266439180716
H        -5.39631145439347   12.46075969199339   24.50014449141289
H        -3.99345395612784   13.16995861656461   23.69768033355724
C        -3.53976078887953   12.26274582917293   25.58370235026839
H        -2.54415488926083   12.71075975085332   25.53863760086115
H        -3.45580561002765   11.24577963513592   25.19227309570458
C        -3.98108820209806   12.20788379777431   27.05047133746897
H        -5.07138316779317   12.20135837593973   27.11265879588490
H        -3.62368683100040   11.27422667626026   27.49043888053974
C        -3.41537465744016   13.36102034007445   27.87957608327562
H        -3.62221126906542   13.19080271499507   28.93770850492649
H        -2.33141836323814   13.39542880811837   27.75294927634711
C        -3.99855849250855   14.72179764758851   27.49162261515558
H        -5.06135162659418   14.75933845599953   27.74734216132708
H        -3.48345017718631   15.51005668985960   28.04566913161077
C         4.23317335105304   18.29157532899663   26.98665777839230
H         4.97152852821694   17.74708288949926   27.58878296047459
H         3.26896314914117   18.21814299738690   27.49342936902202
C         4.64209499883634   19.76637968068548   26.87091488529152
H         5.72786527085085   19.85496065286190   26.79850699484362
H         4.34052858021687   20.26155250385884   27.79529103337148
C         4.00269945186571   20.47253328467252   25.67170271993225
H         3.00593952214230   20.06437128273328   25.49411420793252
H         3.88661606776679   21.53188474159760   25.91085487751713
C         4.84790454577052   20.36468561682630   24.40026195312314
H         4.48108547708519   21.09009145317034   23.66934792129179
H         5.87722123084422   20.64334555746504   24.64196057685449
C         4.83656596236509   18.98153257587819   23.75256371872166
H         3.85810173233733   18.77027745924549   23.32134182021260
H         5.56860165918063   18.96017606090683   22.94281960447561
C         5.14989678947451   17.84761144124117   24.72941853216724
H         5.25361358762813   16.91740123397104   24.16445661960026
H         6.07692728043615   18.04279823502509   25.27108998934510
N        -1.58177097160358   16.24614234661792   23.76876371462449
N        -2.68636808869265   15.65192680659233   24.24949142090473
N        -3.87863895782712   14.99519142767875   26.08018875868018
N         1.74556375880866   15.98146761079092   23.72725304563511
N         2.86537996634266   16.63361271820957   24.07946043032676
N         4.09376280031309   17.65828191737929   25.69966877214788
Pd        0.09673957927926   16.23145134394518   24.99879877338618
S        -1.51625079012548   16.08471966527908   26.62677043722517
S         1.76054514319439   16.66859388717212   26.52293528346252

