101
CSD_code = GIZRAL | q = 0 | S = 0 | Stoichiometry = C48H44N6NiS2 | MND = 4
C        -2.88107611854853   -1.13039633205828   -3.51917520199090
H        -1.97611640680555   -1.72540713991875   -3.43341633663820
C        -2.16691032643227    0.16790083314141   -6.56939130391347
C        -6.53477496200772   -1.65307141036250   -4.17283909592253
H        -7.46766712520257   -1.92776471763649   -3.68617706202970
C        -7.27894460869783    1.65809846826703   -4.28751377129148
C        -3.78306947052865   -1.01351346960810   -2.40908037262352
C        -4.49475250191291    0.18551467314096   -2.24766841504596
H        -4.26373010205203    1.03036774567184   -2.91087123239180
C        -5.40581791401171    0.34511569860947   -1.23081161497248
H        -5.92597300981824    1.28413830562335   -1.10833101071425
C        -5.66282243336845   -0.69798620570544   -0.33485160642861
C        -6.63578845949194   -0.57854372348815    0.69670814193560
H        -7.19453363688485    0.34440707969887    0.76399460968541
C        -6.86565048315555   -1.58966010891137    1.56734238083820
H        -7.61167313063175   -1.49149004690045    2.34337035098464
C        -6.12884664731931   -2.80725247659753    1.49262518870537
C        -6.34232311992099   -3.85888927412088    2.38591848323506
H        -7.09388928785971   -3.75138378943364    3.15513668038082
C        -5.60361139986125   -5.02463426126939    2.29575643421481
H        -5.78199803912575   -5.82665811979258    2.99775936498075
C        -4.63906607112219   -5.17078965852884    1.31630334745101
H        -4.06340164566468   -6.08276144899982    1.24849432180813
C        -4.39807408914958   -4.14832065945902    0.39670962363379
C        -3.42786236093749   -4.27129748398255   -0.63662258161716
H        -2.85677611382335   -5.18697995758912   -0.69533085003252
C        -3.23135853634889   -3.28112230289011   -1.53887204733219
H        -2.50759906581226   -3.41946414260894   -2.32649720549156
C        -3.95862094779487   -2.05843894468319   -1.47448315707352
C        -4.91955929584762   -1.90103160003772   -0.44509002992776
C        -5.14773013468886   -2.94994297185159    0.47984219901796
C        -5.61316658798288   -2.67868340748661   -4.57272768713440
C        -4.84901841938390   -2.48880098728964   -5.73132414784488
H        -5.02256553059702   -1.58968302150973   -6.32575581242549
C        -3.93485655647121   -3.42755174003244   -6.14481026151944
H        -3.36509896941033   -3.27308136462155   -7.04833237387427
C        -3.73232339860144   -4.59870442888011   -5.40745247227106
C        -2.76335735954795   -5.56792983275345   -5.79110832638948
H        -2.17141138246308   -5.37216415603423   -6.67457317112901
C        -2.57905166460995   -6.70090326629907   -5.07300519957170
H        -1.83644182441646   -7.42839735202580   -5.36926580410616
C        -3.35937999764744   -6.97104677108366   -3.91142919860527
C        -3.18992189723700   -8.13460868842514   -3.15846481264453
H        -2.44087193620805   -8.85263092185316   -3.46096076939963
C        -3.96813234118825   -8.37322362860013   -2.04037332239102
H        -3.82308428440862   -9.28044726020242   -1.47132512953048
C        -4.92948418648451   -7.46128215714722   -1.64608609987186
H        -5.53566719003067   -7.65081735783645   -0.77178721444976
C        -5.12829802484871   -6.28132647923736   -2.36520469020780
C        -6.09327875178768   -5.31006084389506   -1.97793112362930
H        -6.69318407111840   -5.50733009913456   -1.10076000182877
C        -6.25035642483253   -4.15785464791553   -2.67123031651100
H        -6.97080161919293   -3.43084080399760   -2.33085429164171
C        -5.48202347179910   -3.87807133455385   -3.83747460152540
C        -4.52166127642145   -4.83337491450344   -4.25325476394885
C        -4.33807168424621   -6.02691163661898   -3.51221642883818
C        -0.14696425067359   -0.84057431193814   -7.40146818914668
H         0.13933109532955   -0.96366307880735   -6.35432799654315
H         0.71497367959345   -0.46838503413732   -7.95926898562116
C        -0.59767601994181   -2.19738070760527   -7.96615321357577
H         0.28538420696975   -2.72764550450639   -8.32799097748430
H        -1.03453138424810   -2.78602213381330   -7.15827207282421
C        -1.62915265927700   -2.08090470328662   -9.09150277429304
H        -2.60189539475347   -1.82900658630492   -8.66355490772477
H        -1.72553414200356   -3.06463223387247   -9.55737699398601
C        -1.29436850215120   -1.03901549969089  -10.16417467927263
H        -0.21293550235384   -0.97238500480337  -10.29916586296558
H        -1.72187128784630   -1.36486629453200  -11.11501344604897
C        -1.87104597668124    0.33998829115877   -9.84143854369901
H        -2.93824728189397    0.24158290162530   -9.63390700970721
H        -1.75866542677953    0.99732814050140  -10.70557862653971
C        -1.19552658571299    1.01139305416282   -8.64320690256491
H        -0.15987059445470    1.26102372483567   -8.89410699451938
H        -1.72512504945687    1.93557304859760   -8.39944533020384
C        -9.41169388592776    1.91016212477764   -3.21283313869890
H        -9.66332831207921    0.95143367235799   -3.67369854439679
H       -10.25848578438988    2.59066397301803   -3.31646142899911
C        -9.07577201440198    1.67409812641242   -1.73933637660886
H        -9.87618360007296    1.08630532833717   -1.28576940372815
H        -8.16557175089575    1.07455629801342   -1.70744372419764
C        -8.89298786024551    2.96440750338742   -0.94260411432442
H        -8.52961842284989    2.70393213649755    0.05491616919146
H        -9.86357759629309    3.45128933092492   -0.81446633691106
C        -7.92521114764200    3.96760483470932   -1.57489591471141
H        -6.99108592047971    3.47073966199897   -1.84286154146410
H        -7.69016886311534    4.72708335282724   -0.82583864951001
C        -8.50920693780268    4.66096957067153   -2.80893035260510
H        -9.58293046713342    4.79666733260230   -2.66511510966124
H        -8.07152780619174    5.65480698246601   -2.91568117988629
C        -8.23833939638127    3.89816055937115   -4.11298557545793
H        -8.96554025327728    4.20266304792185   -4.87667950072483
H        -7.24117697983553    4.14609421212456   -4.48178809798517
N        -3.08635845326393   -0.51953708822695   -4.64229225604773
N        -2.10425843505623   -0.64920203501743   -5.55235088333071
N        -1.17175289609042    0.17368224260595   -7.47065948640379
N        -6.33153702745803   -0.39180378274482   -4.37453806019103
N        -7.35196287808651    0.39436687450496   -3.97238880297993
N        -8.29142056997443    2.46887694753675   -3.93815708269712
Ni       -4.66965173463800    0.57001568331539   -5.08843993734975
S        -3.46560579436356    1.32043921297020   -6.73998703314916
S        -5.95129783995808    2.30650037327354   -5.21789034060485

