101
CSD_code = GIZWAP | q = 0 | S = 0 | Stoichiometry = C39H55Cl2N2O2Sc | MND = 6
Sc        0.85057448661809    6.69304285305035   21.01372650639492
C         1.03863347687446    8.99614590386912   19.90534362560381
C         1.13346090447260   10.32434042712349   19.24651624893654
C         0.50131461617359   11.44118662679445   19.78631847859010
H        -0.06883133021579   11.35244559070054   20.69594335919076
C         0.59168773818825   12.66956731317205   19.15757081990351
H         0.09325657894007   13.52539878846554   19.58805695221745
C         1.31417841935057   12.80374898027627   17.98415758406828
H         1.38198178582898   13.76386093644787   17.49429497840320
C         1.95344589771487   11.70003187011906   17.44567476230381
H         2.52605530978082   11.79584613029957   16.53501841193400
C         1.86636571754248   10.47043684765802   18.07168263688822
H         2.38299608198482    9.62199331950471   17.65603247867247
C         1.39496119957887    9.85771479138522   22.12196308686464
C         0.46408579922706   10.19288569254599   23.12641425743198
C         0.76737122621538   11.21838672662301   24.00788582391092
H         0.05069787978833   11.50809236541835   24.76043921186188
C         1.97852368515045   11.88201279763453   23.93756451771078
H         2.19724495602367   12.68445126286182   24.62656145918902
C         2.91607091274372   11.49685148352345   22.99962229327500
H         3.87531798282818   11.99107601075011   22.97988079050298
C         2.65082585942156   10.48900103245185   22.08333512143959
C        -0.84690776730224    9.44310815581116   23.23073971821403
H        -0.69382939108320    8.44154523067630   22.80216898520721
C        -1.94582372929668   10.12586813059648   22.41060934885204
H        -1.71238426638177   10.08821806226885   21.34920850661409
H        -2.06163595021304   11.16597822320000   22.71308919398388
H        -2.89093311312902    9.60854967030326   22.55960372824073
C        -1.31541959284287    9.27383772584724   24.67776288305370
H        -2.11245210859967    8.53392624135242   24.71707367711718
H        -1.70947563249595   10.20630852929022   25.07617049725616
H        -0.49822570240740    8.94301074728569   25.31575941103317
C         3.74393258921740   10.04266965317090   21.13919176294717
H         3.32728500431496    9.34649132740498   20.40544470622354
C         4.36449821212212   11.21834338275638   20.38179907631730
H         3.59207679153393   11.83759336782578   19.93085972955390
H         5.01481852750339   10.84816832407332   19.59208133023834
H         4.96118522643039   11.83900500667127   21.04576924177823
C         4.81406497467914    9.27880694677315   21.92626735861147
H         4.39731143509362    8.35622916448582   22.32431864016450
H         5.19416437037809    9.87865177380431   22.75052121548153
H         5.64237085790017    9.01930665216263   21.27098474246193
C         0.64949739086251    7.78635719048856   17.84449261269661
C         1.62198959575153    7.22514573952511   16.99428970915080
C         1.31526202502270    7.03018155447627   15.65723585775336
H         2.05061698468774    6.59178875116867   14.99943455566873
C         0.08298843765043    7.39748078855211   15.14880278399722
H        -0.14068489180748    7.24319889668473   14.10342870649134
C        -0.85850448788029    7.96725133714708   15.98307432567827
H        -1.81630397934673    8.25698285842536   15.57781923408814
C        -0.60193982186906    8.16875115607520   17.33235216606035
C         2.98688439939066    6.84290622067721   17.52531568668635
H         3.08120571705987    7.22553550916760   18.54956329793104
C         4.11729059807703    7.44063074514840   16.68313739449470
H         3.98781869191436    8.51314060680198   16.54915295305820
H         4.16008315978083    6.97827229695307   15.69941762804427
H         5.07046050178738    7.27100289179545   17.17914683705838
C         3.12668098198575    5.32065727096112   17.59064134063154
H         2.39896990066824    4.91930708803882   18.29069525896387
H         4.11970674080215    5.05626302056835   17.94666954332423
H         2.97119829933630    4.87307749836813   16.60995158183620
C        -1.68037711708874    8.75788991705774   18.21228026814926
H        -1.29270479009437    8.85686161859925   19.23217168048346
C        -2.09022428678612   10.14696336331447   17.71616671909159
H        -1.21885664832853   10.78923966822378   17.60587958812697
H        -2.77347639051857   10.61017262810124   18.42511867917771
H        -2.59196366205724   10.08071399302102   16.75381226172264
C        -2.89378500198935    7.82701395793400   18.28056359422451
H        -2.62142278998818    6.89292710459017   18.76570019005086
H        -3.28127699265268    7.60996509763971   17.28789092039230
H        -3.68216206371065    8.29198165812782   18.86804306620955
C         0.00154339475151    5.56727939527890   24.07702778326104
H        -0.35259621515410    4.73367798598891   23.46498977521714
H        -0.85935079645410    6.18383992544802   24.36756493197700
C         0.80443115685680    5.14075083420749   25.29729105893927
H         0.17026400768706    4.84727685445969   26.12993866379762
H         1.47016952889999    4.31540791540355   25.04194300067752
C         1.60974955575891    6.40755956412817   25.56878748244361
H         2.51660430436118    6.22246052830049   26.13890489008949
H         0.99856348810924    7.13273918467929   26.10709143844166
C         1.91861975479742    6.90199246740522   24.15615510642360
H         1.90560022079167    7.99550023711264   24.07639819556718
H         2.88586937480665    6.52540214242328   23.80367577624605
C        -0.33801967039664    4.42323621612266   18.84519113456211
H        -0.31191653923556    5.24689863034111   18.12630648165999
H        -1.33825136265436    4.36235129356065   19.29455175274999
C         0.07754685641911    3.07086108005878   18.24392610840926
H        -0.79363029151431    2.44023808723546   18.07876797658269
H         0.58531869797132    3.20895022312821   17.29137102966140
C         1.02794763692251    2.47290792854194   19.29455635892701
H         0.74778420598987    1.46311336897700   19.58549659307085
H         2.05196806038608    2.45612194805007   18.92386202787493
C         0.91196719547109    3.44817709503846   20.46922577586509
H         1.83800548803622    3.55452970347530   21.04023244058481
H         0.08494830440435    3.15607910990244   21.13476294653424
N         1.06402063446916    8.82856132947201   21.22466261233825
N         0.92167851307445    7.86055661021568   19.22359600166808
O         0.90132799424985    6.35773859638114   23.28505896580691
O         0.61595221231556    4.71072038897547   19.87368515393889
Cl        3.06703519993987    5.99267882546016   21.22604226211288
Cl       -1.44926133137344    6.31469803622492   21.27926067474127

