73
CSD_code = GIZXIW | q = 1 | S = 0 | Stoichiometry = C21H36N9O3P3Re(1+) | MND = 6
Re        1.09527579157769    3.55031940180329    2.16577378664340
P         0.26026888512240    4.99351319563678    3.97907928769867
P        -1.15013561750147    3.34438903351577    1.17271660614183
P         0.76760043084297    1.51580550792677    3.51437725190160
O         1.50318385538647    6.06332668706116    0.39730475847481
O         2.22118997537855    1.72364822863890   -0.07133436099350
O         3.92056977640319    3.87875645709375    3.39818003829528
N         0.03063455224383    7.58423769725265    4.87057596889729
N        -1.61218067723719    6.01678968753400    5.70348997544114
N         0.66205239588087    5.94083283992857    6.52767366082665
N        -3.22935812508834    4.62625677757708   -0.08687967308739
N        -2.57668074957172    2.49219311068005   -1.01762629752288
N        -3.78286349809279    2.57779104668419    1.07689211136094
N         0.39219984585942   -1.20701255978723    3.49845285691219
N         2.00023247981292   -0.36506691540533    5.09577633024361
N        -0.36526551678744   -0.03329300524767    5.47481093700353
C         0.42567516893418    6.83013382720841    3.70812957862271
C        -1.47443565509382    5.02625387485786    4.66732711527142
C         1.15685346331325    4.94378155032969    5.61320868918951
C        -1.36224816730709    7.36637013045661    5.21807518519056
C         0.86352815132621    7.29155127763251    6.02524689731334
C        -0.74418146245004    5.75247615810552    6.84082729650134
C        -1.99752304841334    4.90538869899872    0.60594535569708
C        -1.24903602803037    2.44978376820851   -0.45947363132252
C        -2.64281228058378    2.54199330232238    1.95585548088007
C        -3.01184551501259    3.85035403800596   -1.29853748519319
C        -4.19163282732685    3.93666132524624    0.75534902930123
C        -3.55319977461673    1.84493418647107   -0.15982631353705
C         0.41315849213660   -0.07465214089026    2.60824468557314
C         2.25717404090450    0.89562524957716    4.44710058349352
C        -0.47068083212574    1.27894707946828    4.89108871150566
C         1.67840790909484   -1.41707112696781    4.14585558352415
C        -0.64038825923022   -1.09056985318947    4.51394719557121
C         0.93753482926958   -0.26839877671305    6.08049214389250
C         1.35560838991578    5.14219138949842    1.05162317953012
C         1.80458904726242    2.39835510720577    0.74701883209703
C         2.88340653724998    3.75353841583192    2.94312329239920
H         1.47328091630220    7.05129780436553    3.46504945548837
H        -0.19522847720189    7.12661272888475    2.85279760453296
H        -2.17580599023541    5.26008211099921    3.85609456091499
H        -1.72728866451346    4.04030644626322    5.07663732114782
H         1.04350269080168    3.95002027763211    6.06521654540422
H         2.22479624118898    5.11819483486760    5.42931356473073
H        -1.63391382601943    8.06814357167163    6.01026359613712
H        -1.98907135168991    7.55867675822292    4.34325283747769
H         1.91427443034983    7.42448281219126    5.75713180134652
H         0.60656258027933    7.99440884464880    6.82135714395844
H        -1.01281723421741    6.44488702185069    7.64222862928157
H        -0.90582368512544    4.72827187152957    7.18832796435559
H        -2.20619385374183    5.54604536774223    1.47249755430227
H        -1.31783524071460    5.44564716323052   -0.06552519108967
H        -0.54282277984866    2.92118123025611   -1.15552065106097
H        -0.94579586462989    1.40420613990248   -0.31853981103393
H        -2.40602977692751    1.49582693373553    2.18837874160360
H        -2.89269369265876    3.06058615821966    2.88960667807251
H        -2.26323353367035    4.34971024551182   -1.91807790944845
H        -3.95517860484584    3.80214470772265   -1.84774267108971
H        -4.33412717215636    4.49991208348260    1.68181492960418
H        -5.14313436457623    3.88828729458770    0.22041149034497
H        -4.50092359899364    1.78480129984990   -0.70024030798624
H        -3.21465639164296    0.83256888595402    0.07646648854634
H        -0.55480670112308    0.00122593802212    2.09624197044594
H         1.19264251535756   -0.22353683450609    1.84992832448298
H         3.08690894589362    0.78134695668348    3.73721464508733
H         2.54883512699047    1.64010281515443    5.19923045670987
H        -0.28774597449535    2.03051352574225    5.66970278865216
H        -1.48670066529187    1.41855203729774    4.50182134649487
H         2.46118253307326   -1.47070916701212    3.38557060512068
H         1.63877031104071   -2.36657549741300    4.68501334443856
H        -0.69633229367514   -2.03741770201688    5.05634054840784
H        -1.60399173049070   -0.90020151995961    4.03314568295463
H         0.89099813334872   -1.21087259883469    6.63133248352664
H         1.16322106061352    0.54083478143737    6.78007279456139

