83
CSD_code = GIZYOG | q = 0 | S = 0 | Stoichiometry = C36H30BrCuN6O3S6 | MND = 4
Br        4.98596696597657    0.11543904958445    4.03249021480015
Cu        3.28170086028902    1.01216356006110    5.42338096657009
S         3.08716408471685   -0.42311903186817    7.33539451872865
S         8.06534625429696    3.68033491221327    8.00124886264209
O         6.52217795857684    1.62195186451990    9.39726950207990
N         5.40227127892811    0.77609479234749    7.59493664171949
H         5.30238430043782    0.82622970014903    6.58108137455384
N         4.54191805291936   -0.08346271638431    9.54973891304658
H         5.33176502676851    0.45919333159631    9.93370431662404
C         4.39463702475794    0.09100059824183    8.23809520204888
C         6.35201971319926    1.58674850617984    8.18530347953336
C         7.11122008372692    2.42257072890696    7.27610520786873
C         7.21451095153988    2.44199775208131    5.90613997716929
H         6.74834953362144    1.73792303426989    5.24071714013121
C         8.04665959357603    3.47328717112248    5.44674138918895
H         8.25156655981259    3.65132224921963    4.40660223082279
C         8.56679367723338    4.22044822817676    6.46243582065155
H         9.21954980491839    5.06741298157550    6.38695485471426
C         3.73404811569475   -0.70806024227456   10.50190886702178
C         3.93886022993551   -0.32781350330470   11.82911997128074
H         4.67689968114754    0.42866842068950   12.05473904813969
C         3.20191436617058   -0.90802014645947   12.84128288694211
H         3.36446126437891   -0.60195464022400   13.86375842853448
C         2.25878919283646   -1.88020298240633   12.54633205931620
H         1.68125969604823   -2.33316164919705   13.33763931970659
C         2.06806725488752   -2.27132997090722   11.23294935909408
H         1.34395782339021   -3.03626337146671   10.99613704085648
C         2.79981089923061   -1.69603646910662   10.20919498708246
H         2.64686510571243   -2.02106979989434    9.19468887101823
S         1.22330464508378    1.46912589707004    4.28702687420183
S         3.34144489651757   -4.47242053270064    2.53341232287997
O         1.55928497506773   -2.26124490279265    1.74118573076753
N         1.81232943147979   -0.97318594906068    3.60976648581431
H         2.27415384988544   -0.90551341721376    4.51566029290919
N         0.59136695954827    0.16012362171034    2.02110169689730
H         0.70375083122589   -0.75194347809820    1.54824748820847
C         1.18341168493897    0.18385151378771    3.21320755995643
C         2.04054523295159   -2.10953432435902    2.85720245063300
C         2.89096603644639   -3.09469622797726    3.48805452615302
C         3.44967238640056   -3.14967959262069    4.74434561537862
H         3.30785612829564   -2.41401508012356    5.51657158870859
C         4.23702673250835   -4.29365417359907    4.92998899684366
H         4.76184611364441   -4.51439983172398    5.84162140883067
C         4.27023880234802   -5.09189975252424    3.82337095969223
H         4.79873750387509   -6.01655019228492    3.69893384243155
C        -0.02320545962659    1.14279290149679    1.24716135705972
C        -0.49270132398481    0.72422762690808    0.00003620018834
H        -0.38126808391372   -0.31179342482924   -0.28615294993458
C        -1.08606169733194    1.62320126464951   -0.86161669099576
H        -1.44444413678815    1.28549813035989   -1.82241395694508
C        -1.21811314526019    2.95401347840831   -0.49677707430415
H        -1.67688024012728    3.65976656028410   -1.17202101033530
C        -0.76044056271386    3.36990071462781    0.74068087683098
H        -0.86041223963196    4.40384017138313    1.03423179057062
C        -0.16997557421020    2.47621645202399    1.61622186702426
H         0.17482137499922    2.82048816569258    2.57512199114493
S         3.88194924913025    3.22950459161990    6.22772988698569
S         2.71642437224085    4.01144198230897   -0.10866464353181
O         4.33953383489685    5.21633728493224    2.18668559906105
N         3.81408148759950    3.53174779861853    3.63675839434073
H         3.32200601632101    2.64212770290682    3.72966868098409
N         4.94367363206716    5.19885886203657    4.75362693373142
H         5.01385196585280    5.55889466916701    3.79066091166307
C         4.25300762870209    4.06264422597013    4.82934659638425
C         3.87988058072782    4.10113710704010    2.38186922837895
C         3.35260087326693    3.25873913368550    1.31906736714550
C         3.35200009423237    1.89103892894650    1.20700742835784
H         3.76819487172211    1.22565556982521    1.94130226488471
C         2.83262175375078    1.45173874845961   -0.02093365345292
H         2.76141885541282    0.41620330391171   -0.30015536330905
C         2.43906677198735    2.48286724323155   -0.82002909549826
H         1.99537094746446    2.42773796805723   -1.79411393856593
C         5.63143337554401    5.94738665766236    5.70940518534624
C         6.52458941219792    6.89713713914111    5.20880730197516
H         6.63153495140035    7.01006600745245    4.13940717804642
C         7.26622487429588    7.68053814894059    6.06873879621070
H         7.95625775896544    8.40801288162446    5.66792912806790
C         7.12516618349998    7.53469689574610    7.44021116303171
H         7.70673012387908    8.14510997281380    8.11386534288400
C         6.22795813054256    6.60736923619432    7.93832423798146
H         6.10431040220856    6.49276025913960    9.00429326266979
C         5.47894474169217    5.81562883566230    7.08539112662047
H         4.78087663464241    5.10691086859800    7.49423898686503

