89
CSD_code = GOBBUV | q = 0 | S = 0 | Stoichiometry = C48H34FeN6 | MND = 5
Fe        5.62056242596370    0.89138712224180    6.54649975049421
N         4.00652722620583    0.04263152242090    5.74990247193018
C         3.76254306652812   -1.29125748312991    5.60151349682139
C         2.83556168790004    0.66950101509242    5.43657015168507
C         2.38860682858503   -1.51442432319584    5.25421891376019
C         1.80887936877252   -0.29467813991411    5.16290546474556
H         1.93572441066488   -2.47720379142098    5.11451964126170
H         0.78724296277701   -0.06167848725410    4.93274988395761
N         4.90294931625141    2.68097726782689    6.09468182747154
C         3.68670732805258    2.96111931474031    5.54362638188745
C         5.53135421150959    3.88591896235640    6.23382177472458
C         3.58084416425966    4.36196191399095    5.24908643778236
C         4.73138851419855    4.93556584360942    5.66918254714802
H         2.74371435399935    4.82851912298346    4.76683269751806
H         5.02436588453245    5.96527309626006    5.60037469178693
N         7.27945916887512    1.73737414342737    7.24914804112364
C         7.50825609750715    3.06970911103425    7.42535045715541
C         8.31182578432190    1.09921179093737    7.87300730820668
C         8.67902404065399    3.27670238387476    8.22897568109932
C         9.17379833706581    2.05051578224746    8.51488247394497
H         9.05389629752457    4.23311449136640    8.53864884667495
H        10.03489145679635    1.80414909673088    9.10533560204126
N         6.47151486129379   -0.89734444784693    6.69686325812596
C         7.71156499494841   -1.17391313114236    7.19517935395549
C         5.99108177489391   -2.08731012200172    6.22204327233127
C         8.04743649724036   -2.55047105821510    6.96946324303124
C         6.98291324385547   -3.11542049221711    6.35426298202402
H         8.98393297045601   -3.00609198169502    7.22688291158611
H         6.87380203194099   -4.12532496279192    6.00939677122287
C         2.66915185473759    2.04398573236183    5.30117548233613
C         6.73535779800559    4.10114492523248    6.89786824503747
C         8.55755712479579   -0.26873773702603    7.83002665519068
C         4.70197487663445   -2.30848495254183    5.74652486365657
C         4.29695899324414   -3.68836810157108    5.41182196428698
C         4.30180791888999   -4.68536396130034    6.38336253483984
C         3.91564653775135   -5.97532534156572    6.06835321300781
C         3.52229642479715   -6.28905734597325    4.77814779811939
C         3.51411367124494   -5.30393002917341    3.80471621624045
C         3.89545142307629   -4.01247044236210    4.11910587288161
H         4.60287779158843   -4.43987857706635    7.39194549436743
H         3.92092857774239   -6.73946059502618    6.83247065576782
H         3.22303184428584   -7.29740114896906    4.53242631321203
H         3.20974130361191   -5.54384400297665    2.79614302028198
H         3.89433866201906   -3.24394671865191    3.35986615609615
C         1.36318449011915    2.56034518743860    4.84346471267143
C         0.62214609691400    3.41249777194111    5.65718650952541
C        -0.60014442459891    3.90151066148748    5.23387047493552
C        -1.09670885527707    3.55120842666899    3.98937872712272
C        -0.36397056937536    2.70826435310170    3.17054697993268
C         0.85628787718203    2.21430132793562    3.59433645036710
H         1.01158815992701    3.68300905200633    6.62837167635071
H        -1.16762746317097    4.55963017922970    5.87623569575371
H        -2.05018859131745    3.93561807540524    3.65787229786088
H        -0.74453803052429    2.43640526539257    2.19647305368173
H         1.43307138728658    1.56439644511806    2.95233737236237
C         7.20088987866059    5.49017754669270    7.08634176775145
C         6.43821933280214    6.40171602579390    7.81088664631733
C         6.88030068035076    7.69935907970560    7.99282391928745
C         8.08793328597330    8.10591260342842    7.45054521530701
C         8.85314537257793    7.20622048472720    6.72725305261446
C         8.41514221058178    5.90684770179467    6.54868568286954
H         5.49812734066466    6.08316851890024    8.23897995458679
H         6.28082814574993    8.39642729153688    8.56067831405618
H         8.43166834570231    9.12015802575453    7.59154956494782
H         9.79525166554494    7.51905861495949    6.30058299413390
H         9.00862893944759    5.20483039947945    5.98112035380634
C         9.79508779034238   -0.78909524388293    8.44490936561514
C        11.04438307315853   -0.36959240071651    7.99679733524075
C        12.19990094673525   -0.86740826180486    8.57066271828256
C        12.12458792097485   -1.78796524356711    9.60259337756322
C        10.88613507112516   -2.21169224462528   10.05505500603091
C         9.72976281669868   -1.71886906275704    9.47875173640365
H        11.10238021316963    0.34111618509172    7.18519396150344
H        13.16374297980639   -0.53767539113194    8.21032438304426
H        13.02767204795678   -2.17529624590137   10.05113380407583
H        10.82200552688344   -2.93003832407272   10.85985093584083
H         8.76234462025872   -2.04650871795012    9.83183299375921
N         4.74882589207504    0.96759089997374    8.48062048408690
C         4.11688637974726    0.08548727962296    9.22947197494064
N         3.66108789720314    0.67073053592470   10.36143980513007
H         3.14364731315121    0.21522104044305   11.09550326118671
C         4.02439586473873    1.98839218009362   10.32832301471223
H         3.78390349323277    2.67084935426764   11.11636930580938
C         4.69687470538171    2.15584073419475    9.15906367087307
H         5.15084779881485    3.04136627598561    8.76538513640139
C         3.90273252529738   -1.35081855682411    8.93712955574364
H         3.78756566977121   -1.91630739204095    9.85947739807098
H         3.01048476722316   -1.48666709674283    8.32672345775185
H         4.75000530103647   -1.72819860577027    8.37418508088452

