58
CSD_code = GOBCAD | q = 0 | S = 0 | Stoichiometry = C27H25AsF4Pt | MND = 6
Pt        5.26319990078185   16.54062830151079    5.86971824527775
As        3.91952070016048   14.43601436347988    7.79234286976538
F         5.73838918253774   11.85419139988377    8.23515830429077
F         8.15777547668125   11.24593643864563    7.11846334386822
F         9.30451811943166   12.99658446312885    5.35104214343467
F         8.02887893179204   15.33286115694575    4.73366882257648
C         6.23649981176936   14.80944412066084    6.17724349781453
C         5.66578941624423   13.90705513768916    7.08214802855074
C         6.31564249204551   12.72517934732597    7.38179566247167
C         7.54030345941208   12.40070051382364    6.81241049706099
C         8.11954271033679   13.28737841410545    5.91270496458817
C         7.45595584917520   14.46969343891650    5.60943150113112
C         2.84145155687915   12.94387179459221    7.13395389061622
C         3.25295315049792   12.09568665643634    6.11642979390347
H         4.22944271593525   12.22825586231104    5.66546701051587
C         2.42468567680152   11.08031560389484    5.66977027383543
H         2.76097628134079   10.42062633518872    4.88268909785095
C         1.17037758287513   10.90914993817826    6.22896939576250
H         0.52680699747814   10.11395763649151    5.88228724282392
C         0.73946103957441   11.76487547634959    7.23012303229032
H        -0.24263001420513   11.63979185306321    7.66365161262151
C         1.56771810624680   12.77944484170474    7.67242675527204
H         1.23727357715764   13.45515171998892    8.45756068020695
C         4.09641791634112   13.87293367097001    9.67708275350202
C         4.61237059776392   14.81765514934227   10.55904863913914
H         4.87621986076030   15.80201577396113   10.18387204474445
C         4.79040580638865   14.52085233134665   11.89822499063586
H         5.20057154501105   15.26309328408933   12.56889785688405
C         4.43795593626688   13.27050400836704   12.37665848603856
H         4.57483221088714   13.03209232621359   13.42128232087838
C         3.90538058851948   12.32906889854176   11.51206201811372
H         3.62583852709823   11.35334991767790   11.88278277669698
C         3.73222002008008   12.62822536855448   10.17236679025840
H         3.32211918831442   11.88190417435701    9.50545179635243
C         6.00070879327901   17.53243378021264    7.80487409271997
H         6.19871908714530   16.69425297566688    8.47358732415860
C         4.97160452606915   18.51971642362246    8.29313122873618
H         5.36268339185207   19.53218175006635    8.18988574179165
H         4.80041292142700   18.35088019251625    9.35849405795094
C         3.61665438958307   18.38061052053049    7.57037255972496
H         3.05578164096675   17.56658300555245    8.04366436520284
H         3.03526639315383   19.29879281327243    7.70433341902531
C         3.70656298344711   18.06522875733261    6.09855830674972
H         2.80140667067797   17.60120992418139    5.70497174840574
C         4.61241826340492   18.57711959019669    5.20509607968091
H         4.39777758587604   18.47220938958977    4.14227765840100
C         5.65982547115167   19.61391443147845    5.53441366867510
H         5.29223416557057   20.27112480929875    6.32255751289513
H         5.82850421627010   20.23549786752642    4.65262837626563
C         7.00724221909012   18.98119517518570    5.93205704598252
H         7.53625959844998   18.68650203478403    5.02090655027027
H         7.62911685817631   19.72735002202357    6.43808254590055
C         6.90017776976916   17.75642996603158    6.80235714133808
H         7.78465683408325   17.12167611719153    6.76090501810864
C         4.30083551406599   15.51022587229764    4.37199453793391
H         5.00673301723705   15.05812897335693    3.66948590874793
H         3.63823965528123   16.16813502371000    3.80237381633138
H         3.68591311558471   14.70221086664249    4.78770415523534

