60
CSD_code = GOBCOP | q = 0 | S = 0 | Stoichiometry = C20H37CoP2 | MND = 8
Co        4.27986821251720    3.24693783736912    8.56048660999512
P         3.88734177755644    3.27095231353023    6.34664448740261
P         4.51096566117251    5.11997818681807    7.27431081239402
C         5.89162072790623    4.35093887720553    8.08913706390527
H         6.56998132137178    3.74318690096825    7.48884837630683
C         6.67023181944287    5.22831756908166    9.04106015435290
H         6.00960222973374    5.88748532527638    9.60006419969463
H         7.24803455072040    4.62720479388597    9.74149064705644
H         7.37770703361202    5.84932791728754    8.48506079682628
C         5.10187021327748    2.72665739316301    4.95462933798385
C         6.01000598567288    1.67929494544171    5.60650232882560
H         6.50674496004652    2.06301231944309    6.49368042470338
H         6.77475674880411    1.35462697068700    4.90112907464360
H         5.42326596405645    0.81126850905302    5.90348738817173
C         5.91503999206438    3.91408414219789    4.44656785176624
H         6.47401265044959    4.38270093543504    5.25397732343396
H         5.26663499847646    4.66692387537337    4.00361370010148
H         6.62422810117942    3.58188108159513    3.68814256718262
C         4.40668135432060    2.03944386445317    3.78142877322098
H         3.79269142850268    1.21041839490967    4.12588679440009
H         5.16554459225732    1.63575404417518    3.11022432935872
H         3.79441154479206    2.72704565694231    3.20585029548621
C         2.21839758646679    3.82900725922808    5.62340271852827
C         1.41954024978561    2.63182991990427    5.10432180167021
H         1.41350956010798    1.83231983256279    5.84252232766580
H         1.81742264093259    2.24318246748113    4.17326294975925
H         0.38746978426303    2.93141567153582    4.92261451925095
C         2.37757652187649    4.89665123679339    4.54416366958551
H         2.84871544357619    4.50618194639522    3.64626867767602
H         2.97609935267498    5.72541062857428    4.92086726649931
H         1.39635767627545    5.28096805460851    4.26590761060042
C         1.44511838431419    4.43242283069709    6.79822684703042
H         1.44857452914393    3.75073472563743    7.64594435061690
H         0.41195434844398    4.62104932134914    6.50788566833846
H         1.88672322277961    5.37634431255118    7.11323701335167
C         4.19958935927236    3.29253815194033   10.62797859824956
C         2.84694650277977    3.07044753355686   10.20496324919512
C         2.84198119946043    1.90656762554672    9.41821769004575
C         4.17702883705982    1.33868894210987    9.43125534248760
C         4.99752828364233    2.16388096161874   10.22166336382631
C         4.58037228455169    4.30755210110170   11.65890545116188
H         4.13927533428707    5.27728026494444   11.43702675376514
H         5.65799280660128    4.42219133424584   11.72979374439772
H         4.20705183116564    3.98439411575306   12.63324575273330
C         1.67188156187061    3.87246871169149   10.67285487599807
H         1.85371680103150    4.94044387711423   10.56545548367910
H         1.48824162045286    3.66767708069570   11.72999202672915
H         0.77190603792605    3.62001040555244   10.11722953148407
C         1.64352959211370    1.16544080051658    8.90934630529700
H         1.84086001738991    0.71410835783942    7.93873886064810
H         0.77503019150855    1.81380738108649    8.81924670593791
H         1.39527852033829    0.36162106377893    9.60582832183987
C         4.51745115222498   -0.02925351872743    8.92632201382986
H         3.96196702771922   -0.26543894961110    8.02137723290529
H         4.26018410387981   -0.77355763849533    9.68348963045349
H         5.58038813058311   -0.11713341635241    8.71331858894665
C         6.36698239294720    1.82326827915014   10.72215060745359
H         6.92957578875010    1.25840342148829    9.98183116593495
H         6.28246196099193    1.21156904156422   11.62308715466064
H         6.93267749288196    2.71606401027942   10.97583279054631

