45
CSD_code = GOBFIN | q = 0 | S = 0 | Stoichiometry = C13H27Cl2FePSi | MND = 9
Fe        8.71793422705351    1.08453249089054   -0.09269667073060
Si        8.96443285695152    1.11583005758283    2.10097615628940
P         8.64135503548539    3.07614165414543   -0.91454047555372
Cl       10.70287907999188    0.14385100055607    2.62286352759038
Cl        7.46980824859106   -0.01855840535442    2.94891044641601
C         8.83106537714967   -1.01683732375541    0.04523306054018
C         9.78395447737797   -0.53659035523889   -0.87929095913455
C         9.09947700033518    0.13968516574311   -1.90856926575993
C         7.71423446204758    0.10170909546308   -1.60765310850180
C         7.55453479530043   -0.61153435993930   -0.40214855869680
C         8.98209975457066    2.69506543366992    3.18329869172127
C         7.83381623926933    3.21026339167512   -2.56120784010999
C         7.69585971257894    4.35903694032045    0.05872014176456
C         6.23219228325333    3.93832302794354    0.14945906716053
C         7.80678167116721    5.79202656080338   -0.45694329701540
C        10.28645652856767    3.88399914305119   -1.25155367341220
C        10.99234812446491    4.21380237766584    0.05679959960672
C        11.13722869243225    2.91233183257089   -2.05859550779647
H         7.54958126516917    1.57637554572901    0.53980335605587
H        10.00307202409816    1.55807097350216    0.27229270955757
H         9.03395185512768   -1.65962605483101    0.88328676135802
H        10.84309556033688   -0.71723262576990   -0.83443519082883
H         9.54615550962080    0.51087015627281   -2.81438371234987
H         6.91439899158276    0.44996516056147   -2.23606667264985
H         6.61955705117977   -0.85214716205752    0.07095455516462
H         7.88091089106829    4.23195163942589   -2.93469438554689
H         6.79597307984769    2.90330762475910   -2.45697718346541
H         8.32196086418907    2.54664521848733   -3.26964307972852
H         8.13051648401773    4.29802017563192    1.06237946297362
H         5.70710170656659    4.14646880595328   -0.77974751174834
H         5.72950035332716    4.47591773615007    0.95047323951524
H         6.17076370365548    2.87062882772544    0.35878591694557
H         7.38764713464297    5.88386142333154   -1.45631551917420
H         8.83524329970287    6.14166154623156   -0.47616273039666
H         7.24179867681617    6.45241720895275    0.19949686296983
H        10.11548873537344    4.79661226360273   -1.83466710422952
H        11.98450367848213    4.61682752833841   -0.13909720835562
H        11.09828153032427    3.30117014242958    0.64108031392802
H        10.43748052733928    4.93944273515209    0.64659378574076
H        12.13859642858885    3.31252552285086   -2.20586983026539
H        10.70288855919512    2.71807558356050   -3.03668500888521
H        11.21347014670767    1.97490126744933   -1.50992198151499
H         8.01318441689157    3.18158874696589    3.17440326681186
H         9.72680459273463    3.40413649969339    2.84090826873426
H         9.21461436684493    2.43868578208404    4.21254728499401

