99
CSD_code = GOBGOU | q = 0 | S = 0 | Stoichiometry = C40H48B8P2Ru | MND = 8
Ru        0.71004778012356   -4.96404529287457   -5.43695172426099
P        -0.66350123282349   -6.70371274380421   -5.06094312108945
P        -0.88304200149567   -4.31911274687427   -6.87137714063316
C         1.32804224738938   -6.00197072176434   -7.05360519883022
C         1.91857000242750   -6.60743955147475   -7.92229264630212
C         2.60047540196028   -7.34100503262309   -8.92254884139771
C         4.25330336101100   -9.09976238354750  -11.26010496438159
H         4.78414627544236   -9.66334790995413  -12.01124342702404
C        -2.08627688167622   -6.71006150625942   -6.28069884786130
H        -2.30781611774379   -7.73672913218637   -6.58450548203727
H        -2.96656368659621   -6.29568043793985   -5.78067229157375
C        -1.73216288387644   -5.85126155798116   -7.49143721086804
H        -2.62096940398143   -5.59751142952689   -8.07743497688172
H        -1.01304633709029   -6.38139332320340   -8.12207811753643
C        -1.51289099405246   -6.85072624175914   -3.44635367922944
C        -2.61148708732738   -6.06103567629399   -3.11841326812473
H        -3.05921653622138   -5.41929326276196   -3.86397848849935
C        -3.13739618542956   -6.08310974595943   -1.83960202680898
H        -3.99613890877063   -5.47109978519146   -1.60263761672528
C        -2.56393494030068   -6.88002724366685   -0.86230690957689
H        -2.97335436632034   -6.89303546402078    0.13710751464960
C        -1.45805856208500   -7.65476715008810   -1.17215555913206
H        -1.00104656590030   -8.27308420250934   -0.41263014856577
C        -0.93352520176532   -7.63661300015064   -2.45124088079568
H        -0.07119374059122   -8.24376156169759   -2.69091390188344
C        -0.05400130805095   -8.42428167608431   -5.21506879210794
C         1.30561296475099   -8.64345530932547   -5.38988968121425
H         1.96481366319416   -7.78806863566956   -5.44822625106792
C         1.79634567928425   -9.93091252249186   -5.51791872713161
H         2.85293046988267  -10.09333833831007   -5.67145384665496
C         0.92938952070363  -11.00870624211582   -5.45902391544703
H         1.30764109494859  -12.01492480368799   -5.56500389830264
C        -0.42647847603637  -10.79804019615101   -5.25898008896955
H        -1.10071338378012  -11.64064239549482   -5.19987050094769
C        -0.91857746196026   -9.51253275884618   -5.13424446917199
H        -1.97423920457060   -9.35011876009638   -4.95890505967474
C        -0.42574604506584   -3.40819271093564   -8.37806625710305
C        -0.52560742389880   -2.01823024445596   -8.39771519897747
H        -0.99416547236070   -1.50500514991062   -7.56770586313908
C        -0.04181415818037   -1.29661980388589   -9.47310428240646
H        -0.12907096209074   -0.21916944272656   -9.48126773002675
C         0.55962716059302   -1.95233578337783  -10.53529517246593
H         0.94043397268116   -1.38657605313681  -11.37298659834196
C         0.67915943512221   -3.33266832237553  -10.51448303153710
H         1.15874433951986   -3.84797261499568  -11.33380939176342
C         0.19565919471850   -4.05746651482487   -9.44111493784638
H         0.31766725700738   -5.12847332688403   -9.41232015056029
C        -2.35774571427855   -3.37905950677625   -6.32718934350556
C        -2.51062944941947   -3.12060783795733   -4.97249071044016
H        -1.73534300005402   -3.45725843353407   -4.29542037696853
C        -3.63284855966839   -2.46019673736186   -4.50378687709476
H        -3.74520258253218   -2.26283615831066   -3.44682233880467
C        -4.61269205633553   -2.05548671210683   -5.39444981770640
H        -5.49115772149434   -1.53960541283170   -5.03495667173469
C        -4.46734601208491   -2.31149066190719   -6.74986398416566
H        -5.23384638140182   -1.99424971485840   -7.44239034645884
C        -3.34600036162639   -2.97063685473988   -7.21781268281578
H        -3.22573587115637   -3.16222397401294   -8.27582465936541
C         1.31245904423366   -2.98874460693446   -4.57165131444605
C         1.06554155777700   -3.88441543638327   -3.49624780656444
C         2.00011292095757   -4.97793059518299   -3.61482075130139
C         2.82446497628463   -4.73881478033540   -4.74955203926719
C         2.36836287575578   -3.53461671495563   -5.38108633131035
C         0.76328681463698   -1.60115709419486   -4.72668622302499
H         1.41691423988426   -0.89529311806428   -4.20745838741200
H        -0.23765135775985   -1.50643726264273   -4.30910293223762
H         0.72367044270482   -1.31335589149808   -5.77627975563873
C         0.25009696650820   -3.60793161787116   -2.26448015317136
H         0.91624884728521   -3.37857909640179   -1.42873566550271
H        -0.35910813558028   -4.46703268454995   -1.97935506223638
H        -0.40896203634672   -2.75393125366683   -2.41049266114051
C         2.25170826702507   -5.99326815633637   -2.53779159074921
H         3.01028583715702   -5.61370960997174   -1.84791082302326
H         2.60856548347081   -6.93610526670134   -2.95020667494626
H         1.34415971399593   -6.19040102162447   -1.96945863787581
C         4.06831310934541   -5.48763461626390   -5.12758662407087
H         4.94540354495264   -4.88513775021705   -4.88068977089230
H         4.09028407013751   -5.69989048102450   -6.19605395877070
H         4.13794908430810   -6.42993910757837   -4.58784663821394
C         3.08868724872154   -2.81563030018110   -6.48460175013979
H         3.86484439279698   -2.16755059298132   -6.06869193138928
H         2.40379168919181   -2.20016990159840   -7.06722418528838
H         3.55948030367403   -3.52694867811029   -7.16072394974830
B         2.40729386175309   -8.92965795533069   -9.24392478714116
H         1.61373670082875   -9.50296868213511   -8.59132755754669
B         2.13703689207017   -7.55374376111982  -10.47079670159207
H         1.12765868508732   -7.04640325118162  -10.80095383198051
B         3.73543074972034   -6.75799150211665   -9.93771236251601
H         3.99296372420298   -5.61454900420360   -9.83706766596826
B         4.00817888176170   -8.13719043670134   -8.71110834525034
H         4.48596807823429   -8.08708791748556   -7.63736246611227
B         3.98531032142798   -9.58569212233730   -9.73956592365458
H         4.40094144718727  -10.63766734849851   -9.41830883508993
B         2.65932560422132   -9.17328676058939  -10.98667882828642
H         2.02038327170069   -9.89648543016782  -11.65841387133495
B         3.59978884364935   -7.63472274148222  -11.47841060575676
H         3.70804667384681   -7.13884119892182  -12.53915138560456
B         4.92625950205118   -8.04705325145527  -10.23025572659885
H         6.08794028061053   -7.87896228667273  -10.29964487792940

