68
CSD_code = GOBHAG | q = 0 | S = 0 | Stoichiometry = C17H41MoN3O2Si4 | MND = 5
Mo       11.07842451801319    7.46205089591676    3.69621791116168
Si        9.29357608146550    9.99627182306565    4.56730302878135
Si        9.92454888607442    9.38728602601934    1.58248928255848
Si       14.12678040378833    9.11318365078926    3.64077960056853
Si        8.79584065551949    5.11288614070873    2.75212265888824
O        12.71702720774183    8.35554943168375    3.59308873480755
O         9.88718363514091    6.28565562594830    2.87397842293181
N        10.88239653162965    7.13793715663411    5.37035172564114
N        10.02791645848318    9.05789783245925    3.28294775210901
N        12.47811625870352    5.73877049396167    3.46224317486582
C         8.32550951485861   11.52848675849956    3.95017810842631
C        10.73080082551174   10.57749848287246    5.68792791123120
C         8.09840880684955    8.83748468725444    5.49903270860688
C        11.16402365651490    8.27126297370366    0.63164782109306
C         8.17185313683892    8.96777398268913    0.92922638046034
C        10.35725648951307   11.19614236634119    1.13051508114351
C        14.80767633236056    9.08148678085380    5.43564822072539
C        15.36069361092101    8.19791612131861    2.47937385114173
C        13.92189737323582   10.91496974015665    3.02389799182309
C         9.47900525412058    3.59029457783409    3.70462734981366
C         7.13128742368026    5.67910649783589    3.50367212427428
C         8.55519502158564    4.65885543995188    0.89779776082158
C        13.46522262512100    5.62151623893364    4.35581771905748
C        14.48028993098405    4.69074987486232    4.23214431910391
C        14.48578296239755    3.83214325047341    3.13973817019476
C        13.45994990658348    3.95206379118426    2.21296552759453
C        12.48558758850073    4.91325307103222    2.41284480824345
H         8.98284784320178   12.28845230671991    3.54466153585819
H         7.78160991917607   11.97493585293530    4.77527141054154
H         7.60345171170744   11.26987011293423    3.18417851481883
H        11.30661543812275   11.38326937863570    5.24118519709874
H        11.39222533289608    9.72636220946896    5.84268408244958
H        10.38022639451830   10.92033093943320    6.65538919998296
H         7.22350309215076    8.58808870629459    4.90600397458495
H         7.75608280165523    9.26716779994558    6.43432941927310
H         8.64107027256097    7.91963083610866    5.71775663691532
H        11.25896255270066    8.57576510848203   -0.40789368807132
H        10.82675656542343    7.23669434139866    0.63277582949289
H        12.15835496939093    8.31716767136697    1.07464396164035
H         7.87807419209208    7.96800805862589    1.23825865519637
H         8.13210843316208    9.01054125155894   -0.15496257068945
H         7.43115047702038    9.66165085176571    1.31267543806793
H        10.73490282494602   11.26354473165376    0.11497628032588
H        11.11268247263363   11.60329470229773    1.79411221671647
H         9.48355455356110   11.83387499500749    1.19402046438920
H        15.31072167108278   10.00724291023754    5.69414744158700
H        15.51903140840760    8.27443435346167    5.58723516850243
H        13.98996482537242    8.93933780447237    6.13835862574287
H        16.35263867694435    8.63193887834844    2.54428391391204
H        15.04988053980622    8.25668371769010    1.43927985971922
H        15.44643275965510    7.14360302135463    2.73517257715379
H        14.84592132973476   11.47437096581714    3.12876835353632
H        13.15346046761375   11.43169068847613    3.59200954511402
H        13.63491315310485   10.94795778416604    1.97631978447427
H        10.02303268886828    3.94468276389781    4.57890868414164
H        10.16219035327268    2.99228284541308    3.10638070691853
H         8.68660826983480    2.93321735434256    4.04536474612766
H         6.77083558156335    6.59101983297854    3.03511312479257
H         7.25494431981315    5.88369439634363    4.56301531100990
H         6.36116433427743    4.92240944394722    3.39328706921798
H         9.45147774947433    4.23077986418065    0.45483235352170
H         8.28189581528835    5.52793114639491    0.30554357129733
H         7.76229015921074    3.92717573342667    0.78617764701642
H        13.40357894282167    6.29912654331407    5.19831223917923
H        15.25138475075229    4.63350783318729    4.98397108490062
H        15.26092526099687    3.09140138047249    3.01712348644708
H        13.41544611163026    3.30934331694130    1.34752730571605
H        11.66182988678100    5.02192385317435    1.71632269545538

