70
CSD_code = GOBLAM | q = 0 | S = 0 | Stoichiometry = C27H40ClNTi | MND = 8
Ti        1.61399509261295   -0.73955388855543    2.42969497665107
Cl       -0.55360459933132   -0.89854874202231    2.19014344585437
N         1.70072577454162    0.67406210256337    3.55491267259723
C         2.72457046839243   -2.39396522212972    1.83173741390445
C         3.60714947929722   -1.27055455504953    1.59521569331792
H         4.52705921473742   -1.06208659577567    2.13260592179067
C         3.20270387989857   -0.64255137727491    0.40849132684795
H         3.73337014682983    0.14841445214952   -0.10819226577040
C         2.09315923331842   -1.34710331737956   -0.11235991040821
H         1.60540182992579   -1.13731496933185   -1.05521645525688
C         1.80761126415785   -2.41199982785437    0.73720168427626
H         1.03947348786165   -3.15408440023314    0.56100109931588
C         2.27065175002693   -2.62324369281538    3.20557789148422
C         3.35099434107521   -2.75060293316737    4.27411414882461
H         4.11064139320216   -1.96427724062565    4.15425553185360
C         4.01555781480654   -4.12849268774492    4.12077321346440
H         4.45448817855618   -4.21349457596333    3.12364464175119
H         4.81699984782981   -4.23949518729588    4.85610094376358
C         2.96802179320736   -5.22326152116207    4.32221863910656
H         3.44522713716983   -6.20488944238687    4.21695581669772
C         1.86782933771223   -5.07736270584598    3.27324225622518
H         1.11904088535255   -5.86262346314211    3.40513039221019
H         2.29236635947019   -5.17708714309985    2.27143947259627
C         1.21194522397843   -3.69682459459929    3.41773326028327
H         0.40431167896370   -3.59831258088279    2.68043922477194
C         0.60588531170855   -3.56359653864404    4.81755568478980
H         0.12917656976417   -2.57983406842064    4.91047391575859
H        -0.16521092476107   -4.32509318442695    4.95829706376456
C         1.69939553465867   -3.73200238271928    5.87096193338368
H         1.26203825936640   -3.64746854642988    6.87296444510738
C         2.35489585378930   -5.10484090434867    5.71754859805495
H         3.12972456371345   -5.23249813360702    6.47741784858301
H         1.61151192141137   -5.89193897427178    5.86322378217490
C         2.75684536892187   -2.64742127321550    5.68076367408937
H         2.31338810844756   -1.66006737890241    5.82015898409134
H         3.55085324241139   -2.76958044145116    6.42278037241143
C         1.01998275223390    0.65167864310141    4.83579012915231
H         0.78618863954344   -0.40914925294355    5.03185826407494
C         1.89450038373862    1.16891230177782    5.99232072895614
H         2.85453211881669    0.64425170792931    5.97818640478335
H         2.09196659624919    2.23462367328009    5.85777761008087
C         1.18432648219756    0.95523789197074    7.32589811750306
H         1.02995660750889   -0.11415108207748    7.48908033281531
H         1.80670032223933    1.33087870102643    8.14107299820511
C        -0.16584018355397    1.66695151062116    7.33225494747022
H        -0.67612775049162    1.48526224310139    8.28021081098692
H        -0.00703785783839    2.74403826007770    7.24021938315555
C        -1.03414085597730    1.18352065232219    6.17366718587334
H        -1.98597032980960    1.71848545961603    6.17571933057723
H        -1.24933297632562    0.11969501038196    6.29773715658001
C        -0.32521929048385    1.40217493198563    4.83977419760446
H        -0.16562413166693    2.47231757519101    4.69061544229455
H        -0.94138370035080    1.02565022633625    4.01871527482445
C         2.04114171723481    1.98427243204305    3.03477838780919
H         1.73068989432457    2.76977173092007    3.73841386253768
C         1.30834324662745    2.23221376823571    1.70117296180742
H         0.22825382291709    2.17799027544893    1.87600093766254
H         1.57926716167482    1.43196198214173    0.99196793651059
C         1.67921935810617    3.59257355579935    1.11535460370329
H         1.16715589349611    3.73750405306968    0.16200470828327
H         1.34703672664952    4.38147120214480    1.79514212011803
C         3.18845672784999    3.70038637000133    0.91950699782241
H         3.51636897635377    2.94509485787060    0.20141700274520
H         3.44129479222674    4.68105015493313    0.51154112322564
C         3.91190679723173    3.48691326605068    2.24567695788115
H         3.61996514011419    4.27250424843254    2.94708404913192
H         4.99163380654052    3.55751073072414    2.09785055289785
C         3.55951559910678    2.12262497441842    2.83204838552810
H         4.05997667088003    1.98259198517616    3.79428178030336
H         3.89820201963115    1.33208189498319    2.15555197890724

