96
CSD_code = GOBLIU | q = 0 | S = 0 | Stoichiometry = C33H58N2Si2Ti | MND = 8
Ti       13.49927593082147   12.82638083787589    9.40018019823782
Si       14.40615224503139   14.32433960853004   11.53070667692325
Si       13.61362577422061   16.23708208426731    9.28307066204315
N        13.63070047594696   14.67004066382355    9.99031962460233
N        11.87374402887709   12.08742375903601    9.81393827415667
C        14.46206460947281   12.45610733313013   11.22659538744444
H        13.91744333554077   11.87352463541088   11.97137679626871
H        15.47669207400166   12.06064446866062   11.14966748955971
C        13.35060535937550   14.84517321620750   13.04977882379324
H        12.95296109467898   15.84651727053855   12.92994459915178
H        13.94873365183450   14.83328903143134   13.95486734451421
H        12.51235461315311   14.17232720945013   13.19717179063789
C        16.13073834973421   15.12483991393311   11.77492322682403
H        16.04610685173891   16.19302345512517   11.93918634384296
H        16.76471822115500   14.97085928997744   10.90830892791704
H        16.63565195348584   14.69970941728869   12.63642761662692
C        12.70859358635531   16.30587986500321    7.58958091268509
H        12.91981019261723   15.44527510054518    6.96245374390181
H        13.03648412181262   17.18769391433358    7.04719720113619
H        11.63223196437618   16.38722964513348    7.69757514034354
C        15.36777154291308   16.95221482303196    8.95016753057065
H        16.07043538031511   16.18235466488417    8.64549022149393
H        15.77231212368787   17.42211496282341    9.84011935167601
H        15.34638920945060   17.70585502488896    8.16842813078251
C        12.74023315147062   17.51951089899438   10.41172159252591
H        13.33579434796617   17.71889675742834   11.29661446828758
H        11.76498975578607   17.17824804820224   10.74515175902933
H        12.59987805628590   18.46265984447401    9.89305079913814
C        10.62878956578749   12.82882831765297    9.76646311604183
H         9.77012322304332   12.15103130694412    9.88425325591328
C        10.50768667143448   13.52156349509883    8.40049264712566
H        10.51942095705896   12.76092382174978    7.61162931652110
H        11.38671808874365   14.16793822201212    8.28861270223837
C         9.22929726909327   14.35013354428990    8.30322951899776
H         9.18328054983134   14.84709154963429    7.33145274335131
H         8.36106477241685   13.68943202149063    8.37886070853033
C         9.17258530503665   15.38622974525397    9.42109451329463
H        10.00692221989870   16.08150099105526    9.31380403690809
H         8.24360451210055   15.95690284956066    9.35239960769487
C         9.26835128423267   14.70217261205887   10.78001385462796
H         8.40485975488199   14.04451063802037   10.91582183881281
H         9.24348857915877   15.44981843222445   11.57541430674667
C        10.55502511174234   13.88779655558200   10.87931745026369
H        11.43060669811612   14.53703616859572   10.77879342189000
H        10.60595285388509   13.39091372303296   11.85076275198599
C        11.77126383759414   10.70598181513864   10.23980921541799
H        12.79508318192050   10.29802638289579   10.21527857925083
C        11.25002233965341   10.54619970003080   11.68236154945867
H        11.83476337365928   11.18805764146477   12.34618762237992
H        10.20670265968118   10.86403825572315   11.73526799160508
C        11.35379477614994    9.08842418216899   12.12191064365848
H        12.40184521925535    8.77987467397588   12.10707716847731
H        10.98906852909880    8.98242245775275   13.14593478912617
C        10.54649489438652    8.18937675255629   11.18962582038816
H         9.48853153233471    8.45211123229719   11.26175537376377
H        10.65214269388120    7.14606143645198   11.49380415823286
C        11.01188782749125    8.35884139518758    9.74625733827411
H        10.40541153292170    7.73456949125449    9.08589530125083
H        12.04900586761155    8.02613849662784    9.66066371127439
C        10.90669668916240    9.82011850850200    9.31770550186569
H         9.86049206669018   10.12784882674074    9.37024518905086
H        11.23568187131164    9.93786627606185    8.28273725685119
C        14.94080035267825   11.24451838017410    8.35339396201056
C        13.78259137169607   11.40180431557672    7.55833243169620
H        13.10284910574418   10.62008431803768    7.24574785173466
C        13.75418428273663   12.72570829672120    7.06182369652560
H        13.06010496016943   13.09504876061876    6.31397935970340
C        14.89902598763533   13.38907123930593    7.53762694001732
H        15.22383845650164   14.38000762970712    7.25316737478480
C        15.61469876203875   12.49244858658781    8.34719043088946
H        16.57772373072417   12.70391939200622    8.79340979179606
C        15.42980965465938    9.95718294058562    8.98916896046786
H        15.05778522345771    9.90538618838643   10.02588270844111
C        16.96528918042607    9.87937540180641    9.05206679819539
H        17.35358286444157   10.75799277057784    9.57777146641189
C        17.55014728245771    9.82431617095476    7.64168957523880
H        18.64134776754066    9.79890234683307    7.69484106515446
H        17.25822683795898   10.71704709920018    7.08505852393371
C        17.03353146555718    8.57826356373355    6.92506098852516
H        17.45427449203165    8.53745999737998    5.91378449509221
C        15.51050026619226    8.64924837898671    6.83986370745748
H        15.21622949164339    9.53753137662252    6.27787637924687
H        15.12415945073187    7.77171713852638    6.31510083295187
C        14.92320978755204    8.70697679526168    8.24959759566699
H        13.82995845498769    8.73577809139948    8.18983000411741
C        15.33688246394191    7.45438357308619    9.02276238891613
H        14.91014050139943    7.47752614648872   10.02934043225737
H        14.95154955307234    6.56501835200154    8.51768934207974
C        16.86011771587325    7.38425033254898    9.10738045868149
H        17.15555576609832    6.48742533935287    9.66441684606778
C        17.44767754681364    7.32691481246340    7.69816703418724
H        18.53718403560670    7.26570936818094    7.75227663271693
H        17.08810219081309    6.43391711418903    7.18112318534754
C        17.38154890713875    8.62735737823733    9.82484493511098
H        18.47104224253330    8.58413788290749    9.89623357276932
H        16.98217153577481    8.66637325802453   10.84165259640823

