73
CSD_code = GOBMUF | q = 0 | S = 0 | Stoichiometry = C29H38MoN2O3 | MND = 9
Mo        7.15620285041005    2.17370351568813    7.59835322901545
N         6.14871292145107    5.29682758073716    9.30065827730506
H         6.46436702361685    4.65106702516407    8.57483056916571
N         6.28907165673253    3.57028326783917   10.82879533663241
C         6.07567094387477    4.80027796379294   10.54859774390671
C         5.74393874775411    5.73871466690014   11.66462886893027
H         4.71747469487617    6.08610374270184   11.57435811897842
H         6.39800450775769    6.60767276613620   11.62199033119808
H         5.86622208864704    5.22704977902256   12.61419715521627
C         5.98377030338062    6.65554241391609    8.92614194087970
C         4.69942868306423    7.18408360665098    8.77284359625821
C         3.46944992097857    6.32317767779457    8.94095800149211
H         3.76368845062034    5.37298698576706    9.39628622219575
C         2.42029967120039    6.97801073428452    9.84194008784641
H         2.86096773507752    7.30637928724377   10.78176900493268
H         1.62583873685068    6.26815324260452   10.06304209996421
H         1.97281942557031    7.84179430448294    9.35768513137589
C         2.87834619251363    6.01397322290824    7.56257242429328
H         2.01982472024174    5.35322970486673    7.66106833838244
H         3.62007609803486    5.52986762474787    6.93269050924154
H         2.55720862672414    6.92858898601641    7.07027903355667
C         4.57657928098929    8.51275162321879    8.38970839475655
H         3.59571563148545    8.94196285045534    8.25713928654445
C         5.69401160590617    9.29058219582274    8.15727200842482
H         5.57970465142713   10.32162795300779    7.85699758725280
C         6.95767009413617    8.74713270485517    8.28837330517726
H         7.82190950398374    9.35790327557358    8.07977347669535
C         7.12402412005125    7.42549313408884    8.67580697346809
C         8.50031323874081    6.80882237964119    8.76405275841766
H         8.42946752724580    5.86708479696529    9.31804548828861
C         9.49933573365388    7.70146919376753    9.50072048421739
H        10.42969883817251    7.15965130107043    9.65606298605094
H         9.10664878499792    7.99938910993294   10.47114021640895
H         9.72558423477065    8.59789955455070    8.92995470447807
C         8.99383821640335    6.49307304577072    7.34909284657977
H         8.29904773045269    5.82715142979397    6.83806282221929
H         9.96760465735267    6.01051320497852    7.38446401389375
H         9.08133743461643    7.40659708441587    6.76563727919374
C         6.64170654078179    2.56563779385487    9.96448436333161
C         8.00193913996764    2.18981207490372    9.84576193615512
C         9.05882962262485    2.96709436439179   10.60177021602408
H         8.63743389319128    3.94287594576933   10.87126219622287
C         9.37415831550283    2.22162010968778   11.90415718449309
H        10.09015372515172    2.78686611521861   12.49609828893517
H         9.79741072008786    1.24074666097249   11.69520246270411
H         8.46579181715172    2.09123989946254   12.48907039604067
C        10.32820880660496    3.20825023371551    9.78683113537772
H        11.00240562863968    3.85633935467899   10.34270362749612
H        10.09035044614321    3.68922921387750    8.83992069538306
H        10.85351224090040    2.27869498604014    9.57993743086899
C         8.32964706107791    0.95399905441871    9.23591984084786
H         9.36083985605769    0.61543730034036    9.24719490698613
C         7.34052754570851    0.11834748848787    8.73204985967559
H         7.59245719708449   -0.86808453303775    8.35407293152678
C         5.99016399788023    0.52928104935205    8.77705958533049
H         5.22150314387402   -0.15359244986841    8.42980634683359
C         5.63020881619852    1.75249386455095    9.34562060072259
C         4.17381318311952    2.12139789837370    9.51925120383318
H         4.12089849677399    3.17242426716495    9.82553105616417
C         3.57553335839448    1.27644050214485   10.64951484059461
H         2.54160392538269    1.56373211620255   10.82587205983867
H         4.13941313036925    1.42691778123998   11.56807829767651
H         3.60080973440293    0.21844423299644   10.39503910244203
C         3.37135147694793    1.96612764005943    8.22800270421235
H         2.36868601874413    2.36343714161639    8.36876489385470
H         3.27972778557105    0.92184441743130    7.93867188328351
H         3.84723585033484    2.51064523088823    7.41292484908855
C         8.70683083472120    2.90046443548229    6.72035390412852
C         6.25720873873971    3.63360398225191    6.73279623596108
C         6.80386978114392    1.39056745305036    5.87829694317535
O         9.64436847766032    3.30254902745646    6.19567172568238
O         5.69842235656467    4.47504161283028    6.17377435384577
O         6.56810305273674    0.88808079682043    4.87654128843039

