217
CSD_code = GOBNUG | q = 0 | S = 0 | Stoichiometry = C96H86F12N10O12Ru | MND = 6
Ru        4.62493664039074    1.10918383432980   32.24974764855839
F         7.12127049023785   -6.31633652040875   29.99681194957397
F         6.47743621848974   -6.75409182804316   31.99058186784087
F         5.38818038421446   -7.53442773571457   30.30996201389762
F        11.79313937340229   -1.04804975115728   30.41510574316926
F        12.72003675685953   -2.08722651382747   32.04750360366842
F        12.35018002975024    0.02428630284553   32.18116193517409
F         7.35577260778503    4.91289235854361   36.63832209630871
F         5.30580867741335    5.07241975780765   37.25297299309854
F         5.77561392348951    4.19436063178157   35.36824802066641
F         1.35999441127585    8.27853753981603   31.27470234678265
F         1.00543657077936    8.00893087439756   33.36541026971328
F        -0.65384071967233    8.09440417078584   32.00682246034513
O         3.75349451867390   -6.42189023911888   32.23992323424322
O         5.90071669961467   -4.01485173444237   30.91880642984535
O        11.50562661747917   -1.26795516054818   34.49628720233927
O         9.42847687842339   -0.67090906712585   31.70343809620769
O         8.26479850794279    7.11494727247629   34.77771606606817
O         4.82336957146781    6.50102371901279   34.69802515055038
O        -0.02717427980603    6.52582110837707   29.73576203402032
O         1.85879477632019    5.57960380502937   32.53155261408777
O         1.09210283095051    2.71825113373234   32.71141294923640
O         0.16642159818311    1.07835241871742   33.92615226378783
O         4.04208256683864   -2.00782580570760   30.03800950809942
O         3.52430791668334   -0.93420259498865   28.14027277691300
N         4.68473972016118   -0.47944341967217   33.50377614570121
N         6.34554770930157    1.80880512548376   33.06272429954271
N         4.60432690146950    2.67555405299847   30.97127111227407
N         2.88592233754568    0.44004579088025   31.47595896425658
N         3.27370424121920   -4.21901261050202   31.86857057977025
N         9.24051577207670   -0.96889286025681   34.35959724804541
N         6.93853684621388    6.02514632734119   33.27709712554153
N         0.82367367562283    4.46173937912634   30.23349635420405
N         3.54101251057472    2.27218885897085   33.71331860436315
N         5.73901197158311   -0.07295072968971   30.81593428380203
C         3.80141217607665   -1.51574371632650   33.54001142542098
C         4.19532779146618   -2.45813186656043   34.55184520885005
C         5.31936239465652   -1.96769548965817   35.12685776085001
C         5.61250693865455   -0.72486825761235   34.46897320526583
C         6.68708630841016    0.10094058810765   34.79555536515630
C         7.00560140018830    1.28777102692475   34.13513193879371
C         8.12332729668508    2.12467394222191   34.47638069341638
C         8.14264236422128    3.13733381146569   33.57921130915994
C         7.02113727690542    2.93613019001350   32.70091935425391
C         6.70919642794372    3.75711168652751   31.61592119542340
C         5.58141804654830    3.60946108812469   30.80841288011176
C         5.24236982735521    4.48861724835937   29.72301131005727
C         4.04256200924017    4.07746545180528   29.24755378453681
C         3.65044961466987    2.94213176822427   30.03684293131834
C         2.47950914953705    2.21235172405076   29.83312138706403
C         2.14409377528162    1.04306126144077   30.50982394747050
C         0.94414495568130    0.28912475706925   30.27048823012436
C         0.98811566347488   -0.78480986148633   31.09597203505664
C         2.20788657495790   -0.67786172958939   31.84783589469667
C         2.63377543345458   -1.61775504346375   32.78326692078414
C         1.75169981600026   -2.77695256064635   33.05083712278439
C         0.57213055575834   -2.59012843219150   33.75928076278743
C        -0.24760914846627   -3.66235587681302   34.06304744220022
C         0.11279094195226   -4.93607909247611   33.65832597285949
C         1.27878060706696   -5.13978601465130   32.94229123929333
C         2.10319811014355   -4.06463831996299   32.63033517734051
C         3.97525311856749   -5.35627102246805   31.71005650992730
C         5.14406360817415   -5.18483994676084   30.70051263078185
C         4.60341821216880   -5.13149507084241   29.27774576499382
C         5.41054551322247   -4.62882442852398   28.26573925095736
C         4.95392690979573   -4.60127463566214   26.96015295216574
C         3.69597264303824   -5.09200343478316   26.65299402907761
C         2.89725658407436   -5.61193518118342   27.65792061861228
C         3.34576833532214   -5.63242934376977   28.96781317498747
C         6.49910444817501   -3.87300603740123   32.19622752297266
C         6.02723344043832   -6.45509613907018   30.76764452815568
C         7.55808404582800   -0.29906225184720   35.92892613483023
C         7.11568897902812   -0.16672837859238   37.23717868968384
C         7.94002285658429   -0.49418002293841   38.29953685980956
C         9.22168353473419   -0.95757027488465   38.05883361463439
C         9.67854533657133   -1.11052179067163   36.76175346729500
C         8.84980738625496   -0.78785677860340   35.69536602097782
C        10.47398359046021   -1.20093434772794   33.87043231876854
C        10.43249399218351   -1.44438007064757   32.33611653564286
C        10.15769427672488   -2.91603584827828   32.04427257783735
C        10.25825463019639   -3.88086518411684   33.03801794884617
C        10.07011054568166   -5.21663953990905   32.72533284147647
C         9.78571912112172   -5.59774084158613   31.42542039359339
C         9.68147209328256   -4.63608541440413   30.43492622654946
C         9.86814392774547   -3.30042374358536   30.74062737852715
C         9.65949949597335    0.73163024296623   31.66424742561706
C        11.83404237537464   -1.13643048563450   31.75809471446334
C         7.65532126945627    4.85345229417534   31.30101370681530
C         8.44889738460050    4.79028325535903   30.16321467943357
C         9.37623724026281    5.78011839434621   29.89113406628166
C         9.52209619192149    6.84628759066023   30.76197463499921
C         8.73117404719200    6.93591976606308   31.89363601042380
C         7.79494973610660    5.94702275611737   32.16186312309111
C         7.22361278509288    6.59841300380928   34.45680274301078
C         6.01629642258429    6.54700438714293   35.46038389354750
C         6.14118976511367    7.75947548176389   36.35596136238942
C         6.52685541907103    7.69865244706934   37.68599280495223
C         6.65047253991372    8.86741252285161   38.41988324178379
C         6.39669617291766   10.09484584487181   37.83604542723990
C         6.02735031525631   10.15855864203655   36.50259882086508
C         5.90694018733851    8.99770688377599   35.76438319573182
C         3.61790527166624    6.85174202730296   35.36613396902766
C         6.13404674754288    5.19927323132616   36.19809512432676
C         1.55315196583119    2.68919815902431   28.77993885649823
C         1.48487731966627    2.01842880245381   27.56651472927465
C         0.64789325815785    2.46318591852739   26.55864244094533
C        -0.12982050395585    3.58989742064145   26.76222172908556
C        -0.08079720907575    4.26721648866924   27.96765129471978
C         0.75714710267425    3.82261209520426   28.98413525037004
C         0.44398511576629    5.72243906305279   30.50940669633133
C         0.64809916930986    6.07964605571525   32.00777959717542
C        -0.48946596695319    5.51455327072582   32.84656579472780
C        -1.65464536757672    5.04052930868906   32.25932374126968
C        -2.68051930667960    4.55408517681242   33.05204094065284
C        -2.55164450498370    4.53535844283157   34.43092801662223
C        -1.39475183118637    5.01813153737425   35.01801789438068
C        -0.37046377268962    5.51305257909956   34.23032786854218
C         3.04828485154936    6.04369864886682   31.91054721637264
C         0.58532952930573    7.62179189994261   32.14368482977982
C         2.42767538152741    1.58605433781102   34.36979850311580
C         1.16680369658339    1.86966080444178   33.56662302596474
C        -1.05841946718153    1.23326198564399   33.21402608600010
C         2.24555903716351    1.98044111543907   35.85361568542908
C         3.39858338776765    1.42311225863397   36.68614364608010
C         2.13154180948723    3.49322219257198   36.01157060742163
C         5.29068157142945   -0.04109121707449   29.42337827925436
C         4.21850179110876   -1.10673163225890   29.25467141015521
C         2.46706637633482   -1.85810554128611   27.89174858175375
C         6.44347465389541   -0.26037857172551   28.41371349958887
C         7.35847885270834   -1.39989373563209   28.86018174606334
C         7.22947989701399    1.03811265322995   28.23985732857886
H         3.66936922731030   -3.36157579134664   34.79349672863624
H         5.90152650420679   -2.39620854871212   35.91933180035361
H         8.79465990276582    1.95807526610532   35.29599655318899
H         8.84681309467612    3.94357205550218   33.51819857260674
H         5.84204386523181    5.31192976830050   29.38724199903085
H         3.47576178522796    4.48780643327458   28.43400101574252
H         0.18201482809498    0.55555151942249   29.56225081001791
H         0.27307543051696   -1.57962796991860   31.19381526531707
H         0.31219769198678   -1.59143389328556   34.08057879283025
H        -1.15921414207248   -3.50510964288309   34.61974799630444
H        -0.51728917197695   -5.77948344153542   33.89611663447004
H         1.55730701450600   -6.13322032552754   32.63348481298759
H         3.61367794052026   -3.38130507824193   31.40265450298139
H         6.39949529348377   -4.27518697155563   28.50623662022152
H         5.58843331209639   -4.20770754602613   26.18036485287135
H         3.34245905437767   -5.07893063266104   25.63296275919176
H         1.92107530701781   -6.00827798041501   27.42362854459167
H         2.72111131521749   -6.05604243227507   29.73847283836002
H         6.83673764349981   -2.83874029342819   32.24567856662487
H         5.78559786631418   -4.06080414714451   33.00244069312721
H         7.36349936478004   -4.53013062533673   32.31391055750079
H         6.11793220399247    0.20514449719654   37.41687394712771
H         7.58339159920811   -0.38093075157027   39.31201823894042
H         9.87232588086824   -1.20703358509484   38.88280179234939
H        10.67577403663045   -1.47033444499548   36.57189407723362
H         8.49204055395426   -0.85752740019384   33.68301801971582
H        10.50377985164369   -3.60374966635267   34.05081652840082
H        10.15363064821593   -5.96066797144784   33.50244958476274
H         9.64613065834719   -6.63971861786331   31.18342757535933
H         9.46018954217524   -4.92912418286748   29.42067371513210
H         9.80493406709155   -2.55484639510984   29.96520724743645
H         8.69054096862863    1.19621458329994   31.48504339338507
H        10.05574444403299    1.10577982733397   32.61022554255533
H        10.34352958897760    0.99889255029419   30.85505460381388
H         8.33905095851522    3.94892315415984   29.49450416535159
H         9.98878511729875    5.71419282272823   29.00488520605076
H        10.24960349935152    7.61689636768676   30.55922063373430
H         8.83975421675370    7.76397840916645   32.57398848413050
H         6.05789914394167    5.53426294025047   33.18992168447054
H         6.74754780069566    6.75845618492554   38.16469084522713
H         6.95357539360549    8.81184361851596   39.45428690029321
H         6.49630145782913   11.00109041456104   38.41400464395917
H         5.84214182141393   11.11303980267849   36.03370173559907
H         5.63848513871727    9.04176996018841   34.71851687289977
H         2.82469249057163    6.52979209676480   34.69603375863070
H         3.51676423442245    6.34633396255199   36.32797852622765
H         3.54945834065451    7.93050630621174   35.52229842709493
H         2.10955101444086    1.14937621687565   27.41912111572888
H         0.60831195596237    1.93635512918509   25.61708502388094
H        -0.78267381114847    3.94687805066109   25.98041126277604
H        -0.68292364877733    5.14709803084570   28.11876385295982
H         1.21204760019205    3.90856401100109   30.99390360522403
H        -1.77583720200825    5.06087285598763   31.18787583528585
H        -3.58484946020906    4.19068171514235   32.58763092873193
H        -3.35340214060493    4.15377432862301   35.04521162650342
H        -1.29069656073066    5.02018311581907   36.09268889664900
H         0.52056648167778    5.91187108031356   34.68864661785031
H         3.82304398360017    5.33404858528405   32.19566479665538
H         2.96012499389956    6.06109126548872   30.82241870696986
H         3.32539146212861    7.03917194069148   32.26626423426622
H         3.15953597239937    3.12302474535441   33.27986833580825
H         4.22996010345052    2.56076136557213   34.41167630244652
H         5.68604520038822   -1.05384224603446   31.12017602922755
H         6.72097430738462    0.20687316098991   30.86134647474634
H         2.59134384018512    0.50215433389508   34.34132743646752
H        -1.76186198249468    0.54305100092124   33.67178508376088
H        -1.41702114967348    2.26121670608478   33.29420647979079
H        -0.90592141520955    0.98443595917239   32.16206447410204
H         1.31461481598549    1.51438531104675   36.19237661455906
H         3.25047754878450    1.66668084253016   37.73529401634784
H         3.45616549826813    0.34132508839946   36.58621616798952
H         4.35222824581171    1.84623727057215   36.37522967111743
H         1.87563151796881    3.74407273834998   37.03791523674273
H         3.07344546116239    3.97970486593119   35.77435218311803
H         1.36051899230366    3.88835606935142   35.35523200779872
H         4.82657085822577    0.92679921487043   29.19941430338732
H         2.14785767404095   -1.68525632929552   26.86747184273244
H         2.81950032558340   -2.88249465158837   28.01798914630421
H         1.64636707697612   -1.66797763108948   28.58646787449360
H         5.98562724663008   -0.51970365530981   27.45391502582580
H         7.98556928237299   -1.71541098068143   28.02999479914154
H         8.01382364571952   -1.08531441879964   29.66962801370547
H         6.77913551415958   -2.25490345427818   29.20003836469861
H         8.06653555921203    0.88069627429841   27.56455674674831
H         6.59563062366380    1.82041737903235   27.82824168228762
H         7.62352488831428    1.38665626026215   29.19290939811275

