103
CSD_code = GOBTOI | q = 0 | S = 0 | Stoichiometry = C53H44O3P2Ru | MND = 6
C         1.41763867263403    5.61430757159682   11.45318681768696
C         0.18150142330873    5.37814609166919   10.60854697726310
H        -0.63060001685517    6.00606083131072   10.96829231387605
H        -0.11783310730197    4.33559415847850   10.70232939061063
H         0.39888990849422    5.60159463049589    9.56812344418040
C         5.18585813550337    6.47408467441972   12.82423055366703
C         3.27193649537332    6.32423143919473   14.97783274041894
H         2.20042445083499    6.46514711073739   15.18229634463651
C         4.05442763842836    6.39061254477588   16.05738867964720
C         5.51625450988994    6.21754275055157   16.04427013794508
C         6.12313332128629    5.22152647009437   15.28711382088875
H         5.49792924116265    4.54910629887055   14.71531653917629
C         7.49697627775619    5.07134541154939   15.28056102499202
H         7.94745499717178    4.28828577935780   14.68659794492117
C         8.29149337166292    5.91852930072008   16.03417743586036
H         9.36611244686711    5.80754354449855   16.02662533696681
C         7.69907553531097    6.90551299293539   16.80548469115537
H         8.31440983412154    7.56455480777171   17.40202131692953
C         6.32502500121837    7.04961844894581   16.81757180677311
H         5.86429121422042    7.81564841492127   17.42543347808947
C         3.45533524570298    6.63095071991511   17.38752958348087
C         3.84404534644532    5.85292120168061   18.47586477691077
H         4.60349350226404    5.09669288032728   18.33684853770206
C         3.25867537217864    6.03253414098964   19.71441892504985
H         3.56419413785599    5.41590189731788   20.54804547188192
C         2.28314631679222    7.00014982541564   19.89133669385672
H         1.82810909823730    7.14267948210321   20.86094443945010
C         1.89919689551243    7.78810528314455   18.81930812924489
H         1.14708340526429    8.55317121234475   18.95341858500799
C         2.47757954984751    7.60360754638246   17.57726430804095
H         2.18753688370560    8.23220565287850   16.74708724259008
C         1.15130447741264    8.55831348555010   12.21368143921416
C         0.17093720407570    8.24275771637692   13.15433683511450
H         0.46908880990541    7.89859350305658   14.13679378587635
C        -1.16659036374725    8.35809740587520   12.82920082147712
H        -1.92298296388019    8.11379393602016   13.56115602552505
C        -1.53747715142224    8.77819519451541   11.56028245547700
H        -2.58365797751477    8.86525212961680   11.30501252037725
C        -0.56744843561169    9.07538034893426   10.61777506148791
H        -0.85635590358481    9.39208730172749    9.62604938916200
C         0.77489446599155    8.96105241567448   10.93757041322869
H         1.53092080077062    9.18121272065785   10.19654486985934
C         3.79522248138898    9.15260032649168   11.36225019671449
C         4.41761958688243    8.41150171195707   10.36310657202180
H         4.34999176880104    7.33015874598796   10.38179254906926
C         5.10307685050469    9.05650008975846    9.34884760340173
H         5.58660781924364    8.47932160033998    8.57447895688810
C         5.17183974288326   10.43964189788479    9.32815688908739
H         5.71050909567234   10.94260060896928    8.53839135634909
C         4.55018540109192   11.18089678839980   10.32088392859069
H         4.60311245058437   12.25986218224032   10.30362273324604
C         3.86276144233401   10.54291058647793   11.33643219359210
H         3.37956916458595   11.11940721751865   12.11340658739118
C         3.14451507276157    9.40504861087916   14.08316551809867
C         2.20267054515451   10.31725796267322   14.54354328183496
H         1.23527079440057   10.39271434219843   14.06590022363300
C         2.50216899096075   11.13433089425413   15.62106237104255
H         1.76329488428520   11.83629957241932   15.98032424017499
C         3.74063160312699   11.05536225310444   16.23423429637716
H         3.96669206958064   11.69279833634848   17.07622739468308
C         4.68864726822964   10.15893379426989   15.76588737051199
H         5.65907570194011   10.10086545362136   16.23509210904694
C         4.39167813899673    9.33318516173695   14.69927713879832
H         5.11828033925283    8.61739765394591   14.33714065824088
C         4.94610773009712    2.69888670526034   12.90801454579338
C         6.10462473418520    3.24075886329074   12.36859819721282
H         6.15636710164428    4.30693421517504   12.19352940296277
C         7.17762298727745    2.42136353226286   12.06192813905401
H         8.07785395936934    2.84860627848221   11.64521384728343
C         7.09515658361103    1.05805608484042   12.28807408869576
H         7.93284690622460    0.41841575113851   12.05195328411286
C         5.93329260402045    0.51043292231799   12.81069134736948
H         5.86500446404571   -0.55481777424147   12.97738723572667
C         4.85894463875519    1.32449022502658   13.11414603047255
H         3.94637415006106    0.89962077677417   13.51113640282839
C         2.98802853035674    3.28955067555503   14.93527382756943
C         3.83129736106386    2.65783637035727   15.84148376754111
H         4.81243667198540    2.32500728651856   15.53398302001129
C         3.42032444769979    2.46214286124328   17.14865779350163
H         4.08283934338782    1.97309676672654   17.84810000929688
C         2.17550221979170    2.90064934143743   17.56463560825696
H         1.86498290827321    2.75777799134729   18.58901563406761
C         1.33265193611083    3.53655885876589   16.66738384047800
H         0.36461186058426    3.88905760417217   16.99302284673162
C         1.73701014117464    3.73617519813855   15.36172050089101
H         1.09402758760448    4.25684026553564   14.66311284293190
C         2.34982544147246    2.83685516169557   12.16391178291475
C         1.23696874586680    2.12468351498393   12.59049912639008
H         0.98919406172018    2.07673258478346   13.64138402809453
C         0.44285762367024    1.46795508723069   11.66460112833400
H        -0.42290152097393    0.91543567580785   12.00112800326844
C         0.75199878316229    1.51630726887746   10.31595883463723
H         0.12536246185648    1.00591370475572    9.59905472847598
C         1.86786328343392    2.21890617224785    9.88688214814277
H         2.11373607257916    2.25644500719166    8.83573038615771
C         2.66392898192812    2.87373705772078   10.80589664972988
H         3.53546824017639    3.42990064025947   10.47992214241027
O         1.31021009532178    5.59895320279694   12.70341748209895
O         2.51904374576919    5.81707526575794   10.89878909926948
O         6.26947760792279    6.83131564274120   12.63758229970739
P         2.88822085388242    8.27605516874834   12.67586763146046
P         3.49944155913239    3.75857777285564   13.25192984530086
Ru        3.41174581564151    6.05376520658513   12.95648719634847

