33
CSD_code = GOBVOJ | q = 0 | S = 0 | Stoichiometry = C16H10Cl2NiS4 | MND = 4
C         9.39597308572579    8.78433915368692    2.73074298569676
C        10.53075737148876    8.01711016006342    2.82254265089677
H        10.79561027433308    7.47696935061195    3.71942647073317
C         8.41448736495647    8.91954814978094    3.80021032155107
C         7.60953001055222   10.05853668130269    3.87711568351117
H         7.72987315304236   10.83981414232010    3.14232214153598
C         8.24711889917829    7.91744557006986    4.75964352792513
H         8.83436727869299    7.01415875798787    4.70568215127371
C         6.67547093037902   10.20181085601445    4.88182332471576
H         6.06208269424185   11.08718249524133    4.93644727884517
C         7.31184934139214    8.05195008856888    5.76541390936680
H         7.18323220241445    7.27174655463202    6.49901958439712
C         6.52969462219376    9.19634083240153    5.82667260382750
Cl        5.36364031589150    9.36698326359466    7.08609678550781
Ni       10.79243177762639    9.14408461741423    0.00195533825009
S         9.12432277206678    9.63991414981573    1.26286391215045
S        11.63213552334133    7.89945867064161    1.54382784144449
C        12.18608250539183    9.50213606334002   -2.72901030055254
C        11.05131688025339   10.26948746913963   -2.81987545754546
H        10.78546711397530   10.80934147586104   -3.71663584126587
C        13.16614066990279    9.36646575569369   -3.79976117819343
C        13.97088672630726    8.22739108308900   -3.87759968319672
H        13.85158382709460    7.44630194693765   -3.14243722878073
C        13.33205627331685   10.36822789270397   -4.75981884757274
H        12.74489988575769   11.27153885208073   -4.70530343674276
C        14.90335276032328    8.08375260575746   -4.88375225099919
H        15.51651091931714    7.19827198151962   -4.93914546108448
C        14.26571871087989   10.23335583452165   -5.76702339329555
H        14.39313637996993   11.01326012899147   -6.50115285186168
C        15.04773409354824    9.08892980211582   -5.82913337738256
Cl       16.21178281110790    8.91793419535475   -7.09037214007782
S        12.45922090131228    8.64740151131299   -1.26088148755965
S         9.95153192402448   10.38780990743223   -1.53990357551775

