197
CSD_code = GOBYAA | q = 0 | S = 0 | Stoichiometry = C101H90N2OPtSi2 | MND = 5
Pt        4.54789316262147   15.60235812601494   13.14940500958282
O         3.86124197067817   12.24002402838446   12.41940894514536
Si        2.41791941599495   13.02490025569781   12.40054403236465
C         1.54043183025312   12.58283676599360   10.76818678392888
H         2.06392121184828   13.00252622913419    9.91472636165797
H         0.52035903422781   12.95220391765553   10.74829882433113
H         1.50469101670956   11.50720896929280   10.63173454991264
C         1.42483168239935   12.34373430459185   13.87653691116792
H         1.37926532963637   11.26031510750030   13.84167898834419
H         0.40717886216557   12.71899019300442   13.84667446958856
H         1.85266606191466   12.61863605706410   14.83471745302834
C         2.65698028525106   14.89542141691193   12.45304692939198
H         2.42420295689011   15.40654079124221   11.51818289773560
C         2.51260305718027   15.68373928443575   13.62278326837941
H         2.04494917096173   16.66467116617740   13.54843731391431
H         2.26274773573941   15.16845226668112   14.55044311381277
Si        5.36896450887185   12.57865982500462   11.85631996195058
C         5.50973892692138   11.78169621250023   10.13144466522543
H         5.31214551928121   10.71613026702175   10.18303733089300
H         6.50117525179289   11.91518927723457    9.71188678432786
H         4.79485480091101   12.21339532884630    9.43848272054209
C         6.60921098488456   11.75782298652475   13.04543006901896
H         6.74655089285875   12.32705989702108   13.95876222523587
H         7.57547705230565   11.67689977251437   12.55814965045379
H         6.28880984432454   10.75888918115692   13.32282446989162
C         5.59865972710922   14.44233656868017   11.69256206609140
H         5.38408994309879   14.84598084417278   10.70430234911748
C         6.49627786794566   15.19661687084260   12.47884317370973
H         6.98920801676906   16.05240881449463   12.01974966276519
H         7.11464433310219   14.67032824500030   13.20388759339749
N         6.11207274566786   16.71836073082736   15.65258833093377
C         5.15266488597398   16.93131971533743   14.72344148262670
N         4.57373887553352   18.10152536941575   15.09630917430797
C         5.16083868068780   18.60043743206441   16.23265137835801
H         4.85796328762445   19.52443330072462   16.67796388354900
C         6.12436276722339   17.72623498077805   16.58612817469938
H         6.79948090785944   17.73540089404897   17.41461190577133
C         7.05045165268872   15.65249991528574   15.70376585623469
C         8.38216838688304   15.90292504192909   15.36108145425887
C         9.31716576091759   14.89878222476166   15.55193808636312
H        10.35174426806345   15.09062979851859   15.31544068632201
C         8.94830407240583   13.64540400541571   16.01305334173641
C         7.61212611721520   13.39579769741647   16.28474222713638
H         7.31387656102443   12.41322721336341   16.61833454882891
C         6.65185484266620   14.38770071002915   16.14556633242870
C         8.79890503168806   17.21689264717924   14.72689342117750
H         8.02100032588794   17.48107080623981   13.99810982447414
C         8.89912248032883   18.33634705557515   15.73303948618405
C         8.53348666718442   19.62585508612203   15.37071149811865
H         8.17792775097233   19.81778145513004   14.36797422768950
C         8.62596393272216   20.66564691105465   16.27814704211609
H         8.33386669840198   21.66259691713389   15.98256737689573
C         9.09459177493962   20.42963248696454   17.55905133442676
H         9.16596824065354   21.23989417202474   18.26929774001582
C         9.47924483015418   19.15023842002829   17.92390754950509
H         9.85654611457773   18.96215917489944   18.91877741322821
C         9.38390964432585   18.11026033164219   17.01654667953528
H         9.68645120971872   17.11260081935970   17.30294707846598
C        10.09612109211432   17.03764236823607   13.95608218223001
C        10.08265226627750   16.27927848014352   12.78976308827720
H         9.15342655196889   15.85692492380659   12.43962839222842
C        11.24785553219196   16.04426804655876   12.08561109533655
H        11.21780149310002   15.44652732521786   11.18685010478226
C        11.30373340975375   17.56217365946619   14.39522133435003
H        11.34181502475710   18.15493796314005   15.29730444299413
C        12.47100598505144   17.32949940716055   13.68708737409339
H        13.40231166665074   17.74410427223930   14.04501600604700
C        12.44883159775057   16.56783194311169   12.53327262189656
H        13.36105358930095   16.38289942588163   11.98588667126225
C         9.98745832072389   12.56354135483641   16.19263810807102
H         9.47958278341743   11.59405766561242   16.11204086102320
C        10.99635119913681   12.66057013568139   15.06613428789587
C        10.67433625118630   12.13137746894857   13.82309195823612
H         9.73409049380804   11.61450882265500   13.69403535404702
C        11.54046923942552   12.26681349373423   12.75384480488246
H        11.27610622160372   11.84952898286214   11.79307146554850
C        12.74135065110977   12.93655315168474   12.91365835102833
H        13.41863310993187   13.04384544856891   12.07938436463136
C        13.06962535582666   13.46789733197939   14.14819660464415
H        14.00322572635512   13.99486331002672   14.28024075013184
C        12.20224581941430   13.33276222950091   15.21777419612954
H        12.46621794799647   13.75256041412224   16.17816756977161
C        10.65481036643128   12.61312832244124   17.55028286977857
C        10.45619154140937   13.65254039940423   18.44747567708608
H         9.79278744776775   14.46516331399997   18.18980256297143
C        11.09987121850789   13.65655905898615   19.67369129527195
H        10.93486006720482   14.47301256273606   20.36211070466092
C        11.95166598743904   12.62283058006309   20.01811553804684
H        12.45445813179901   12.62798796405613   20.97389543100438
C        12.15500010461181   11.57985278617649   19.12928074871058
H        12.81779053945532   10.76789890060945   19.39058540599168
C        11.51001227514285   11.57562401611747   17.90719048209801
H        11.67301137078904   10.76316774158921   17.21308885535479
C         5.18619851926331   14.11778868431346   16.40099989355834
H         4.65534323414620   14.38099926426232   15.46565427027804
C         4.90313254572146   12.65901553613926   16.69545426450892
C         5.10984934663032   12.12858111070874   17.96476507253554
H         5.47693704267813   12.76128777612484   18.76036890959201
C         4.85016780275234   10.79391071494329   18.21798223487755
H         5.01569750076168   10.39481271044004   19.20846472275563
C         4.37967304946929    9.97140681538167   17.20752183391859
H         4.17559534294610    8.92976531032198   17.40877802973866
C         4.17334595409979   10.49350944371476   15.94284451205250
H         3.80730256943706    9.86429834603738   15.14538457735101
C         4.43255017159453   11.82919778576701   15.68847556561281
H         4.27413933884618   12.22309428203764   14.69852000298489
C         4.62432697036756   14.94102276947689   17.53580076028471
C         3.25357476667525   15.15722688836436   17.60140498668940
H         2.62448213635512   14.79394554570292   16.80212965356406
C         2.68834972990595   15.80360269580930   18.68491443921380
H         1.61935924451576   15.95963637501468   18.72190492850215
C         3.49279330084600   16.24513696212146   19.72334662137137
H         3.05292214505463   16.73001389767806   20.58308161678062
C         4.86130870295366   16.04831610566348   19.66133343301797
H         5.49344925154511   16.39108083779863   20.46788194240742
C         5.42303859718122   15.39689797422799   18.57714301953125
H         6.49074428797998   15.22689091446002   18.54718956044021
C         3.54582013283925   18.75834241394404   14.37880159417904
C         3.79476284187200   19.19469959432979   13.07568418653634
C         2.76194061254275   19.76469755600684   12.34555610479091
H         2.95407990488997   20.10307337992574   11.33792849657450
C         1.48615962081729   19.88322412083665   12.87428768975298
C         1.28296569792549   19.52891178968408   14.19713028594034
H         0.31030030445787   19.66680113899344   14.64195334089591
C         2.29729212483325   18.98012828469929   14.96746351227242
C         5.17466523937359   19.14453183024290   12.46556558555295
H         5.87844145002413   18.73899315383840   13.20087152058372
C         5.57189109464233   20.58631653751415   12.20722398207943
C         5.93516284977570   21.37846272706824   13.29104266412717
H         5.95336436413865   20.94879868400164   14.28376798170337
C         6.26714674303042   22.70853653303628   13.11373584648266
H         6.55141532695140   23.31034773301446   13.96488097793593
C         6.23287484486059   23.26916861375570   11.84800562440637
H         6.49393598128197   24.30751525643288   11.70666176545940
C         5.85854761748311   22.49162028595683   10.76634227389371
H         5.82330135786579   22.92365473760232    9.77681009464299
C         5.52615316072470   21.15946295365913   10.94417969831082
H         5.23806912551398   20.56120059770984   10.09195811052893
C         5.26724990242942   18.27799011598130   11.22965527523903
C         4.18025624621684   17.58991560648370   10.70411311146684
H         3.21293487103524   17.65343316238824   11.17708447072806
C         4.30926268871490   16.87782554140166    9.52026724330533
H         3.44831141030191   16.36949310009376    9.11005546513850
C         5.52723878961481   16.81662967140398    8.86800046822566
H         5.62579932131593   16.25990204866072    7.94745470480116
C         6.62529691918435   17.46793438599274    9.40727317949366
H         7.58474122712329   17.41365327352057    8.91338110554935
C         6.49436856590929   18.19391673876722   10.57577254922789
H         7.35186092696403   18.71264475436704   10.98429042416538
C         0.36206501926430   20.36005357635105   11.98071601982507
H         0.65939639149161   21.32509568686812   11.55136107060351
C        -0.92570710625140   20.56310233601993   12.74740351540187
C        -1.29531088174058   21.83803193635556   13.15459675648834
H        -0.67737278186180   22.68458628580181   12.88803549606759
C        -2.44176390031265   22.03590804966646   13.90408214446593
H        -2.71520678118133   23.03434850323596   14.21334475514812
C        -3.23357988322123   20.95804174725168   14.25910000083266
H        -4.12650035687687   21.11074116096329   14.84707451402253
C        -2.87555179560911   19.68349561782803   13.85437394366455
H        -3.48656220664823   18.83626241933542   14.12837511105378
C        -1.73162332791043   19.48743653605394   13.10285406334259
H        -1.45986814792669   18.48913600452756   12.79484195387539
C         0.16729009717793   19.38343407734460   10.83830110950599
C        -0.24728189739120   19.84685561810970    9.59688449899420
H        -0.41978523673019   20.90443854931556    9.45264943597252
C        -0.44099349095279   18.96948189893079    8.54480976027176
H        -0.76141585470101   19.34584665322586    7.58419042570411
C        -0.22234287822532   17.61386336792931    8.72072746007374
H        -0.36993524314410   16.92943747015175    7.89835697040525
C         0.18427511925630   17.14118452561253    9.95626497186433
H         0.35295300284774   16.08449819299912   10.10630657035522
C         0.37593241212210   18.01992032930459   11.00773653974676
H         0.69517722904456   17.63919580317881   11.96696641844541
C         2.03396047884956   18.67055412563803   16.42546588686894
H         2.62922603040495   17.79628148784393   16.71551102860385
C         2.44822624221073   19.83602092703351   17.30038145250020
C         2.86816042799981   19.59022373562676   18.60244018294888
H         2.92032631400983   18.57168828386392   18.95618438305188
C         3.22989523569542   20.63182528617333   19.43703566102694
H         3.55577574667590   20.42253028517849   20.44538046775182
C         3.17653774917475   21.93843111185736   18.98159167931571
H         3.45885323196820   22.75319381655437   19.63175452958086
C         2.75926120472583   22.19310837338010   17.68675080031854
H         2.71393775496747   23.20924331550205   17.32263495313894
C         2.39591832821249   21.15059513367570   16.85131537994302
H         2.07229649558471   21.36322317069270   15.84254454537865
C         0.57272730957600   18.32093562853007   16.63486256089022
C        -0.35083003274326   19.24257855519916   17.11091712015759
H        -0.02970898621836   20.23679887498981   17.38515932808000
C        -1.68667283204090   18.90099735611291   17.23233371019383
H        -2.39265010164689   19.63165368451228   17.59898254622140
C        -2.11814670830131   17.63437611818411   16.88100204852455
H        -3.16099349716228   17.36984114199167   16.97573806027660
C        -1.20411274935468   16.70856250373489   16.40759825665998
H        -1.53029739357009   15.71684255738308   16.12982261188494
C         0.12968759714447   17.05128138497104   16.28567767689110
H         0.83639248887353   16.33059017172243   15.90421976727689

