54
CSD_code = GOCFOU | q = 0 | S = 0 | Stoichiometry = C21H24N2O6W | MND = 6
W         2.12613698731329    9.72703518778514    3.05074779530253
C         1.87854318686636    9.99044600467147    5.00471171840169
O         1.69571407979521   10.37449876781270    6.07412087011002
C         3.00363701981254   11.49817776506231    3.01736157838518
O         3.46818716287600   12.54918832969724    2.95963450643446
C         0.38209443257167   10.66410159648638    2.92221243481360
O        -0.58698970790068   11.27988142727760    2.87959305553517
C         2.36834578577207    9.79430839885618    1.07517320407554
O         2.50967093839691   10.04588575262325   -0.03667458541436
C         4.06686512473730    8.76755812464227    3.12279048556015
C         4.38024816853761    7.90092152530422    1.96815729702630
C         4.02326305293841    6.55501325126720    1.92603861370260
H         3.55262655669173    6.09339916297467    2.78245537011117
C         4.26903889688501    5.79887520606887    0.79323851260084
H         3.99312016199493    4.75339061963981    0.77719740061480
C         4.86980418076040    6.37136425907152   -0.31441434887816
H         5.04846368429651    5.78136218954427   -1.20068520542300
C         5.24319899563781    7.70528752149552   -0.27658535749852
H         5.71819305517061    8.15835364941338   -1.13413491238860
C         5.01424437633351    8.46014212098007    0.85702924111583
H         5.30056654793817    9.50327707890557    0.88187109119045
N         5.07028532433605    8.95806604251507    3.93475869072635
C         6.40487125387433    8.37089445000692    3.79798528626970
H         6.93371018159034    8.86100949997907    2.97412960582819
H         6.33110709668087    7.30567971988070    3.56879733933700
C         7.09070646478220    8.65716243575140    5.12861662736489
H         8.17348327809125    8.69844944418242    5.03496835704411
H         6.83260256722456    7.89106086293194    5.86123903502537
C         6.47357352216324    9.99511009550609    5.52674969637175
H         6.57259059276203   10.21112036182800    6.58769535805228
H         6.93586007353669   10.80442264554153    4.96083294973809
C         5.01802194181154    9.82257395645222    5.10523917374528
H         4.43887896311914    9.33333329590724    5.89649001147797
H         4.52808605662640   10.76522953157392    4.85566328521093
C         1.15550824505410    7.74625279576274    3.04357413071261
N         0.33001440357793    7.29105392296795    2.11101644566693
C        -0.11322647552337    8.04030639384971    0.95722379191682
H         0.20506421311797    9.07805124174369    1.03361250659378
H        -1.20777422319369    8.00001614028847    0.91846315506618
C         0.45398519321622    7.38218616740827   -0.30654080337617
H         0.09640797173286    7.89139380396631   -1.20184778022900
H         1.55327902585471    7.42362720709727   -0.27613886086281
O         0.02258517434829    6.04417894757251   -0.40897798699824
C         0.41305064564821    5.30371374075125    0.72222691661984
H         1.51119388228575    5.27142832801338    0.78724980067471
H         0.02555147959999    4.29389890333150    0.57636075432714
C        -0.14575507776511    5.91692659244634    2.01291591855064
H        -1.23960447502826    5.92516881915563    1.96960199553321
H         0.17817731896896    5.33981909633019    2.87609265948150
O         1.35718760459731    6.76357126879309    3.95074649230169
C         2.10660899590984    6.99902006963980    5.11698699925934
H         3.08259480037793    7.43259267132091    4.88317891844520
H         2.23583253423126    6.02338593275230    5.58878159990648
H         1.56766875895398    7.65952767518674    5.80076916484584

