145
CSD_code = GOCFOV | q = 0 | S = 0 | Stoichiometry = C70H66Cl2N4O2Zr | MND = 8
Zr        1.96615488404635    0.34084348380111    6.37468686398846
Cl        4.18841454103538    1.18599123678020    6.81392678722840
Cl        1.86180081379762   -0.87842525513867    8.46281177324474
N         1.79524999471935    2.54075331676269    5.38148553217781
H         0.77552533621155    2.63651155597369    5.40887369883713
N         1.79108875473047    2.28324823551784    8.03458177179330
N         0.71126119688492   -1.60479029162042    5.67120313901382
H         0.91299466059802   -1.55717164228316    4.66780158819031
N         3.32681586475961   -1.81400653170920    6.12815027014347
O         2.33288303819066    0.10799614130118    4.45041618838386
O         0.06215317848944    0.84860520641604    6.46955468867295
C         2.51751568074361    1.10032099397868    3.60513388019996
C         2.98398617363000    0.91310403675905    2.28612344250032
C         3.09984073641903    2.00854695694425    1.44657252251752
H         3.43535095952895    1.83959789697394    0.43886945524718
C         2.80203842163399    3.30398044436553    1.84933409283387
C         2.37644430263494    3.48764842003125    3.15969677239045
H         2.14542829774757    4.47791935916826    3.51983429350414
C         2.23639499287318    2.41519139649464    4.01888561672950
C         2.39231519991457    3.64201369813700    6.12545013998850
H         2.07596228443755    4.63040667633167    5.76012069880803
H         3.48440707982610    3.56362737948840    6.02556973867219
C         2.03818914560925    3.51385804051016    7.58187226813736
C         2.00737688030337    4.63387109934473    8.40516156345849
H         2.22087350433809    5.60941952632983    7.99506503591486
C         1.70868152190211    4.47683236954795    9.74687576614753
H         1.67213218914237    5.33107861906357   10.40686478935996
C         1.46787011904433    3.19821118421955   10.21915049726760
H         1.23973079692307    3.01876579375576   11.25701092746585
C         1.52600563809294    2.13740035303203    9.32876290587165
H         1.36619582582690    1.12403351799723    9.67085635029543
C         2.92772437765941    4.50546031622622    0.92435239294315
C         1.55456008378933    5.17839472425897    0.78589049950428
H         0.83228536726695    4.47496251723783    0.37708354404140
H         1.61963532420757    6.03429500548936    0.11724645002926
H         1.18583088816438    5.52524589606754    1.74710813139805
C         3.93352449435007    5.49829503676808    1.52394749389063
H         4.90067383751052    5.01793020518746    1.65290410425726
H         3.60312274484938    5.86157974814335    2.49300766639446
H         4.05704685521940    6.35422574364566    0.86351738176363
C         3.41417427343271    4.12382872028040   -0.47629084812038
H         4.39994777382122    3.66702207935267   -0.43644255110018
H         3.48199973771218    5.01832569835177   -1.09255008188519
H         2.72418925240847    3.43499529901218   -0.95805124722591
C         3.38494193570403   -0.49771486527811    1.85451501796227
C         3.55988341822218   -0.56124592657578    0.33616797884824
C         4.71363415383019   -0.01133166655823   -0.22346746695966
H         5.45846654291223    0.42931878566383    0.42350050369180
C         4.91962192052414   -0.02178418444004   -1.58942272113510
H         5.81957663705901    0.41418073029213   -1.99817902153278
C         3.97753223831227   -0.58909027920159   -2.43165942754023
H         4.13709232058674   -0.60122243356279   -3.49965621630603
C         2.83334760836814   -1.14226887949047   -1.88897032027256
H         2.09183507885240   -1.59291380701335   -2.53284337777890
C         2.62506426942066   -1.12705165393966   -0.51867886332212
H         1.72267034335320   -1.57027263932521   -0.12660231648230
C         4.73363630343760   -0.87460695651449    2.46573464413215
C         5.34660473957577   -0.13377707502532    3.46546923360610
H         4.86405518161781    0.73301444531829    3.89012617886064
C         6.60244994563938   -0.48575533826416    3.93623748267703
H         7.06259857376610    0.11828762995593    4.70404388548862
C         7.25968170161516   -1.59113715976066    3.43027259172127
H         8.24039756072514   -1.86033070061246    3.79488855052499
C         6.65366550575510   -2.34451384126848    2.43842563081713
H         7.15660125367943   -3.20826087976607    2.02728929769963
C         5.41046918858511   -1.98313969215736    1.95611569387130
H         4.96795894231323   -2.55725076054308    1.15341090481011
C         2.28380724824678   -1.45975988080238    2.28137275440594
C         2.53490397718162   -2.74272245027325    2.75120968087979
H         3.54702960614229   -3.07001321732950    2.93055056791819
C         1.49529312748255   -3.62962217284636    2.98414549112322
H         1.72197770740619   -4.63452202063646    3.31159579332772
C         0.18182837320440   -3.24303139514396    2.78462760229532
H        -0.62634522160617   -3.94140978024755    2.94629377516229
C        -0.08707806673478   -1.94846401307095    2.36728246535586
H        -1.10904215157537   -1.62744457243444    2.22709923754470
C         0.95276154346394   -1.07392138415941    2.10718653458666
H         0.73384792810122   -0.07610842778077    1.75377146551529
C        -0.93831569940087    0.00276677291966    6.33995374892794
C        -2.27949932094787    0.34794219252623    6.61315275159590
C        -3.27740099515489   -0.58819316279185    6.39890462850909
H        -4.29428004427178   -0.29591385823471    6.59173306392823
C        -3.02014393197073   -1.87625707237154    5.94720207200402
C        -1.69459758272102   -2.22221772882270    5.71238667168285
H        -1.44675033680800   -3.21510000538290    5.37100466764519
C        -0.67636347686125   -1.30856646183366    5.90343083341799
C         1.16212077987162   -2.89285669939960    6.18169259972698
H         0.72156871944305   -3.74685644001894    5.64584405142961
H         0.87346972902150   -2.95615280394694    7.24063918013002
C         2.66186274859870   -2.97024044188236    6.09205943464336
C         3.30463568621714   -4.20020379826531    6.00748361370299
H         2.72453655400377   -5.11049445922165    5.98910988537485
C         4.68669133893294   -4.23686844697701    5.95497428502190
H         5.21048112210758   -5.17868558959961    5.88250022829486
C         5.37647558669450   -3.03786206953899    6.00625925253152
H         6.45348026314473   -3.00989941924366    5.97699467792195
C         4.65486967854818   -1.85801280142517    6.09877734869621
H         5.16448753241165   -0.90662792570565    6.16626841772029
C        -4.11824402486357   -2.90167977586290    5.70698159217287
C        -4.09697524081285   -3.32241258308263    4.23042429388710
H        -3.14380831311911   -3.76792996412530    3.96040842059576
H        -4.26192815825896   -2.45706922334352    3.59222751449705
H        -4.88120259919516   -4.05074181996368    4.03415913544539
C        -3.86736681251489   -4.12622762638072    6.59837424081833
H        -2.91903980483563   -4.60136482867365    6.36299213621133
H        -4.65898948720241   -4.86019021368319    6.46121877349946
H        -3.84804367642269   -3.82881166725412    7.64444047248601
C        -5.51339929197317   -2.35891829489651    6.02751931926610
H        -5.58917325792986   -2.06972252110979    7.07275095873249
H        -6.25562282922093   -3.13175806661206    5.83693558266603
H        -5.75408954852723   -1.50059817648778    5.40468077702733
C        -2.56597012341332    1.74100913509958    7.17382091815135
C        -1.81012222778491    2.75876805813573    6.32926734929362
C        -1.79426073982554    2.59712603364507    4.94199275173838
H        -2.24489634026139    1.71586209479708    4.50758608550802
C        -1.22426376345378    3.54897492842109    4.11578043139137
H        -1.22188314354792    3.40176053383971    3.04556925415033
C        -0.67820760385877    4.70224896576002    4.65800276658347
H        -0.27219669568296    5.46726481342429    4.01242365852088
C        -0.66668522012320    4.86303949143449    6.03221581234710
H        -0.24327753146233    5.75555279840693    6.47110476696842
C        -1.21132721408009    3.89405829037639    6.86061597486745
H        -1.17276842551496    4.04190734505453    7.92845883437952
C        -2.16250949859505    1.81368911154526    8.64572948281155
C        -1.41676840064512    0.82927020405942    9.27730879499644
H        -1.04587557298164   -0.02374448937499    8.73023147909123
C        -1.13972841076347    0.91397570736129   10.63331134595728
H        -0.57085299547342    0.12503651509070   11.10242237800646
C        -1.58638741477334    1.98945938259384   11.37739013462460
H        -1.37389296717366    2.05059310304376   12.43492193433730
C        -2.32347978795156    2.98389619364374   10.75586146925468
H        -2.68586108446936    3.82853904010336   11.32439635950600
C        -2.61612545679051    2.88998040416158    9.40890320242953
H        -3.22817961906380    3.65271232319335    8.94699521273307
C        -4.06455736131030    2.04288053361761    7.11903077920507
C        -4.89872497139877    1.43805210931227    8.05968273874873
H        -4.46981633902094    0.78551296759169    8.80659451954193
C        -6.26202478838248    1.66054572224943    8.05260874499189
H        -6.88671934134585    1.17784325083411    8.78992494614930
C        -6.82596437139610    2.49996225140134    7.10597681076828
H        -7.89091243348604    2.67929031977670    7.10061440422749
C        -6.00959778686107    3.10857442989939    6.17184826952529
H        -6.43442115641211    3.76997607886647    5.43045774635748
C        -4.64229793449562    2.88110162983625    6.17655643523091
H        -4.03215504392615    3.37414795805712    5.43563035112108

