80
CSD_code = GOCFOT | q = 0 | S = 0 | Stoichiometry = C28H38ClNO10PdS | MND = 4
Pd        9.74483886190817    0.07780462775049    2.08988592395345
S        10.45089334503443   -1.09604930646747    4.06695586963428
Cl        9.36565439803567    1.50103786398799    0.40834705443780
N         7.76901720857565    0.78668649184878    3.05523784464620
O         6.25417525441294    1.95494044825394    4.20628195318495
O         9.26378966834386   -2.58466282670541    2.30990505408684
O        10.23464621613914   -3.44415278007894    6.78160052276664
O        11.27939477905903   -4.12538955378877    4.91364032086165
O        10.57186391985348   -7.79244533294868    3.08267293708839
O         9.40077662400374   -6.18740457743923    4.13057464505007
O         7.44280011120035   -7.20189186503966    2.12928243795567
O         9.07748585036981   -6.00774874643871    1.15334754351523
O         7.07432394089124   -2.32256373100409   -1.80970957173172
O         8.75941213434292   -2.11927181219497   -0.35579550277196
C        11.53528157182932   -0.30583660695167    1.17257535952109
C         7.44702432991660    1.32818694125292    4.16362997918447
C         5.65207289077471    1.80518183824632    2.92162129501135
C         6.70797337251816    1.04541810580298    2.09109088867259
C         8.95158483744640   -1.06667965256650    5.13570619825857
C         8.94109475716740    0.23820959172668    5.86117402614267
C         9.65949179885464    0.34497096155226    7.04746149423489
C         9.67654222086784    1.52434760595725    7.76704243745394
C         8.95906401014911    2.62096765075360    7.31463635103493
C         8.23449178759678    2.53080416749341    6.14348022875512
C         8.23298763807498    1.35189552321759    5.39888291817717
C        10.31350552358575   -2.70209489480517    3.22373237436895
C        10.11636947933288   -3.92520219355773    4.12551992710091
C         9.91230381473470   -5.18294009655810    3.26679933076453
C         8.93508503517135   -4.95533860070127    2.09308565953956
C         9.26493917133739   -3.64055916022010    1.37570856980808
C         8.26530181481704   -3.28114854546320    0.28857844495463
C         8.06984529251270   -1.74215814780396   -1.46066119290032
C         8.71039151915367   -0.58296781852249   -2.13707862304715
C         8.30675910183936   -7.10656839387574    1.30122220981819
C         8.70804306328909   -8.15831713028440    0.31559356098587
C         9.76553995771177   -7.46609657754626    3.91081306116233
C         9.00931480039458   -8.38564872225083    4.81801665781544
C        11.22460437924128   -3.84052268766289    6.22859842411750
C        12.55835237343057   -4.06616716791062    6.87243396716719
C         6.28987633282218   -0.26494200371622    1.40578257040663
C         5.40903912050609    0.02578731868025    0.19581354251901
C         5.61477716940767   -1.25444494270379    2.35302986275935
H        12.23640528828730   -0.75809112007791    1.88556896726948
H        11.97726862253830    0.61415492263670    0.77809679742350
H        11.33762028937977   -0.99290291761753    0.34051835531233
H         5.43746602699978    2.79751430580566    2.51947134772768
H         4.71322843250828    1.25829128806288    3.04427584584916
H         7.12773711693043    1.69136194468666    1.30790632080628
H         8.08548674055258   -1.20030247910615    4.48947863381884
H         9.05235540370663   -1.88335363992638    5.85040732776531
H        10.20033732447656   -0.51853890871538    7.40627299648227
H        10.24300381073963    1.58723776032033    8.68372224649721
H         8.96319908629934    3.54278942805967    7.87579524322150
H         7.66945931154983    3.37555236657637    5.78082792536495
H        11.28036612175694   -2.81321354351447    2.70459951228378
H         9.24328995632257   -3.80607375978127    4.77913489358730
H        10.87842735439699   -5.51717420512970    2.86188412967076
H         7.90790026153700   -4.94649113622974    2.48320504781535
H        10.26268657730095   -3.72939788284242    0.91720690717512
H         8.17152425556585   -4.09792728761037   -0.43500087423128
H         7.28225973354906   -3.07836675228211    0.72571921230817
H         8.10112443432418   -0.26012991319258   -2.97452221751515
H         9.70123593279454   -0.86664030755078   -2.48294154356138
H         8.84133617328619    0.22865984907847   -1.41437980793740
H         7.91016194628873   -8.88516796306753    0.20090914037736
H         9.59456719846706   -8.65304038668350    0.71162007340186
H         8.96431899295130   -7.70432935302477   -0.63647316536944
H         9.52036508781597   -9.34043720085607    4.89139092629896
H         8.02416252549728   -8.53526489899003    4.37665169539642
H         8.88186962950796   -7.93158557724791    5.79580830849246
H        12.42629649291531   -4.26921616442656    7.93096548850458
H        13.14988331683000   -3.15870741690438    6.76048952583335
H        13.07992422094101   -4.88150549831479    6.38128941886565
H         7.24280385936094   -0.69811509668484    1.06032803067101
H         5.21293695776100   -0.88884769601446   -0.35809738973176
H         5.90647542543792    0.72414679436948   -0.47195675852738
H         4.45812050001794    0.45550839139305    0.50580467948016
H         5.40275626774670   -2.18331408739828    1.82796259720861
H         4.66825841323641   -0.86722695245567    2.72583811954101
H         6.25625143371803   -1.48158016668081    3.20300548593737

