71
CSD_code = GOCJOA | q = 0 | S = 0 | Stoichiometry = C30H37ClOSiZr | MND = 12
C         0.44184116100894   13.78441169138360    4.14500108162343
C         0.74428302301316   14.60499431843025    3.01509017049847
C         1.30536897634461   13.83715024404388    1.96985671295001
C         1.56705934146493   11.24926761669664    1.70116842312006
C         1.26699806863284   10.04521799258979    2.31535409953748
C         0.75887448526865   10.00700914407397    3.63652580726224
C         0.45581352687060   11.17184682162482    4.32449506713983
C         0.75906842395029   12.42592781331758    3.74190383470630
C         1.30383601444559   12.45762128814014    2.39461278211683
C         0.35748298080436   16.04958099360277    2.86200589804705
H         1.22525484553022   16.71016483098609    2.92079111610603
H        -0.36365197099550   16.33113930017191    3.62195271286394
H        -0.11267182760390   16.20363508133808    1.89027954711365
C         1.64149380224644   14.39307765139303    0.61000011851032
H         1.40419150302364   15.45433075272818    0.57491569076681
H         1.07094432300324   13.88809316431964   -0.17086806263695
H         2.70610565935198   14.29908289864094    0.38562478165661
C         2.11426976557111   11.26537935165048    0.29929856585704
H         2.78733819198210   10.42634068339581    0.14363097812139
H         2.67574589861914   12.17289649175038    0.11433373124399
H         1.30623038497255   11.19848134820029   -0.43131414632467
C         1.43274082355698    8.76865794428822    1.53551821165391
H         1.14161463138192    8.92022951069770    0.49943192397915
H         0.81144789482731    7.97403611337572    1.93437767710768
H         2.47284505502159    8.44045985799371    1.54764424493537
C         0.53228281446455    8.67726230184456    4.30844957753549
H         0.61467149725821    8.77204882194771    5.38747241008759
H         1.27392484459665    7.95125282813142    3.98737762028696
H        -0.45657262239008    8.27953255817279    4.07534506402534
C        -0.32289165255037   11.11441228869094    5.60826180896819
H        -1.00288996241277   10.26658277248817    5.60434440503114
H        -0.91565269942810   12.01654961816964    5.70360387313946
H         0.32261195966270   11.02584322517500    6.48230928220455
C        -0.58811120996861   13.89849594915102    7.32486225795203
H        -0.26755210793931   12.96245549613836    7.76384141063383
H        -1.61617745765638   13.78471799229874    6.99832538916127
H        -0.58347610088537   14.64203640979748    8.11476603249363
C         0.39133695232961   16.41332267158342    6.05387960857344
H         0.65877345558853   16.70722465475847    7.06481191137139
H        -0.62699501914969   16.74782688001952    5.88639451287142
H         1.04269718249284   16.95261348112105    5.37536865194687
C         2.38312320982386   14.12074289888318    6.15101193149535
C         2.97711323613810   12.82137977946902    6.14092274357530
H         2.48520802390035   11.90646110057716    6.45204770676091
C         4.36282924057917   12.96669665824209    5.92197997350540
H         5.10738258548439   12.18365163888464    5.98077450613524
C         4.63479446849180   14.33357376038093    5.73127231869585
H         5.61516213760209   14.77204932900465    5.59229839777909
C         3.42563486996568   15.04106471526937    5.86512113452568
H         3.33036370973481   16.12051451631855    5.86020918428786
C         4.70001055029588   11.61961412503923    2.29968743769084
C         4.61665047215824   10.28327377439452    2.73405378203086
C         5.10449802558786    9.27292641450436    1.92252365238036
H         5.04209145928159    8.24845110921130    2.26350006778101
C         5.67804763877796    9.55762787901751    0.69517392718940
H         6.05018093266384    8.75889206787373    0.07132296965563
C         5.78399041739828   10.87285916637421    0.28100463882964
H         6.24660525200247   11.10448986348402   -0.66783685293797
C         5.30908243422489   11.91188446557342    1.06594888764689
C         4.03428344156817    9.98329886865277    4.08433003670323
H         3.60654705551976    8.98422462284689    4.10584847481087
H         3.25846665573243   10.71692563112729    4.33174656419290
H         4.81507342911250   10.03110087934100    4.84568969502388
C         5.46364315373370   13.33994980736247    0.62756835302748
H         6.51691312199878   13.62151276429539    0.63648458985739
H         4.92783585622752   14.00621655589404    1.30800438948327
H         5.09434664206960   13.47726807116215   -0.38862367833262
Cl        3.71168692684928   15.68932557795574    2.89446698641417
O         4.23227397345992   12.60046159384487    3.07222253556686
Si        0.54921718731806   14.50852100507993    5.90958660548057
Zr        2.91523903599164   13.67093050565017    3.84001425648867

