54
CSD_code = GOCJAM | q = 0 | S = 0 | Stoichiometry = C22H28Cl2SiZr | MND = 12
C         1.51849553482015    2.11123604245632    3.41957971547031
C         1.97059855313353    3.28140911108073    2.71703648621356
C         1.74186297668095    4.44418023473040    3.48292734913263
C         0.58973667336357    4.76783358048441    5.80737220309898
C         0.17330961172963    4.07393679356664    6.92909341395456
C         0.21554586880028    2.65650799303282    6.96919678693618
C         0.65753490020265    1.91281239458026    5.88817470086994
C         1.03319191589420    2.58450783622758    4.70095634764093
C         1.10445169205745    4.03022875354909    4.71144207282137
C         2.75118008502072    3.31957259229198    1.43101688453238
H         2.40524145849569    4.13461006872902    0.79089383474721
H         2.68475691493732    2.38338004058798    0.88785184116962
H         3.80683417186695    3.49744442096268    1.65182274287493
C         2.33309682669396    5.79162784974146    3.16020511314692
H         3.23975712366157    5.66292503518880    2.56970510628911
H         2.60160926700360    6.31683614851215    4.07358775212524
H         1.64374110962786    6.41823421100534    2.58885614510094
C         0.43052773326458    6.26125406772350    5.69355649309971
H        -0.46859422233881    6.58049306839989    6.21497074797095
H         0.31944986600761    6.54691689444703    4.64951134129447
H         1.28157013642045    6.79432111348012    6.11999021942153
C        -0.31463234288240    4.82151058959797    8.13950087191299
H         0.07465545532131    5.83420095571924    8.15837722949746
H         0.00403675696922    4.32808047840282    9.05328746942420
H        -1.40391946467040    4.87066372558113    8.13913131971465
C        -0.26101170055187    1.95887001343871    8.21350364466218
H        -0.48063072164580    0.91490112813936    8.02158889874996
H        -1.17197402431187    2.42635353368266    8.57767256916442
H         0.48986249115334    2.01180397797799    9.00268400527758
C         0.87237908604423    0.43038738931527    6.00960784482893
H         1.35893072149455    0.20463439424675    6.95657965376338
H         1.52007097569552    0.08647435936568    5.20980274574636
H        -0.06441061855153   -0.12253543721779    5.97132193894642
C         2.32741486959902   -0.10473153001949    1.26113374278226
H         3.32179852340137    0.16208691585162    1.60235079672574
H         2.21954444433093    0.23518415670483    0.23647538707961
H         2.27141799367183   -1.18738350580293    1.24347125235711
C         0.13754536487789   -0.94207020945719    3.19578483057641
H        -0.29779718811097   -1.54044210523171    2.40070722304992
H        -0.65769836348315   -0.68626342791702    3.88556823232717
H         0.85081355068783   -1.56912001733305    3.71747583824861
C        -0.44966368169111    1.51275991776071    1.53590468733273
C        -0.32193260498477    2.60007722689719    0.62128856261544
H         0.49697995102118    2.75020303934770   -0.07116341614379
C        -1.54768147149401    3.29463079273296    0.57244582636120
H        -1.79481968604841    4.09884929909197   -0.10976543448796
C        -2.43192755903281    2.68941970279869    1.48732966547508
H        -3.47028118728328    2.95834282317240    1.64172114368333
C        -1.75946487484092    1.60449600339018    2.08817762348301
H        -2.20955162442290    0.89487790482441    2.77353219593469
Si        0.95999934575526    0.59165962282505    2.40970938469662
Cl       -0.89067851733876    5.72770452542028    2.35069151342578
Cl       -2.08031486394175    3.44502477672718    4.59765561540569
Zr       -0.46125723208000    3.49268072919564    2.91489983947031

