36
CSD_code = GOCJEN | q = 0 | S = 0 | Stoichiometry = C15H14N4NiO2 | MND = 4
Ni        5.56931695158725    2.01989103240413   12.77959663103482
N         6.05785320295788    0.71760000553984   11.57150769176493
N         5.21049317097064    3.14646244116480   11.21841222343222
N         5.41166812415130    3.32784724392289   14.21110021096426
N         5.44008028880825    0.77721762184675   14.13262369783533
O         6.62895720503764   -1.29348515595742   10.74775093124678
O         5.41855022671477   -1.20794658186501   15.18950245292751
C         5.96724641757189    1.12270853694846   10.17329194552323
C         5.47636232995224    2.51967279613070   10.05991205124027
C         4.93388152829781    2.78519483551765   15.34320051022690
C         4.71109573968006    1.31447808812401   15.28082888072310
C         5.75849652957787   -0.52539491422168   14.22957477060806
C         6.63157830424991   -1.09390352206351   13.12801919241117
C         6.41537154847501   -0.57585389529693   11.71899293375936
C         5.26567834223071    3.12790508767344    8.82457241547976
C         4.73701210708255    4.40070570641345    8.77361706508051
C         4.40763321345819    5.02339434360970    9.97168888824495
C         4.66020140771013    4.36510460689348   11.15752044207231
C         5.76886711561005    4.61536462405203   14.22826553932001
C         5.60617418356669    5.42528315253437   15.33501314428204
C         5.04497473967594    4.88514553473342   16.48493940510886
C         4.71947109357959    3.54269787611618   16.48935377324985
H         6.95259172790716    1.01462877038897    9.69481378874089
H         5.29148516305916    0.44443775981076    9.62885482165833
H         3.63535542759658    1.09125656224146   15.20336482457800
H         5.06937409113085    0.81788359886761   16.19391694554944
H         7.66915428681771   -0.86546178986735   13.39299721674413
H         6.52759921120191   -2.18007732876776   13.12040210312821
H         5.51247062892129    2.58666507998752    7.92483917794763
H         4.56648701035802    4.89431689236773    7.82914655725304
H         3.96033646758099    6.00450537123517    9.98505421370005
H         4.39165002432835    4.83439888777324   12.09464490501356
H         6.22428338082601    5.01206879242969   13.32967945332121
H         5.91431125801484    6.45798674189413   15.29811751923858
H         4.89079391407964    5.49491604752043   17.36194180765649
H         4.31634363723006    3.06698514989805   17.36924186893467

