74
CSD_code = GOCJAJ | q = 0 | S = 0 | Stoichiometry = C23H44N4Si2Ti | MND = 5
Ti        1.78972618639223    3.45886124429918    9.59232162373016
Si        1.41971730892977    6.14309292896298   11.33167212475808
Si        2.32571048773661    1.60716916278066    7.09193821284362
N         3.06313533181501    4.81288260618132    8.50978369193080
N         0.93343058741474    5.09670313662704   10.06851876998152
N         1.36877724997593    2.79777949486070    7.86261838969282
N         1.16280254134594    2.20282715806837   10.78635860233147
C         4.37285723839630    5.00415836822684    8.64923134072696
H         4.85917305155143    4.40655790447731    9.41282560603336
C         5.09550323534612    5.90144834939857    7.88764206381177
H         6.15666186219244    6.02271840943617    8.03700813553193
C         4.41582272521167    6.63770642288740    6.92569939665041
H         4.93832047890602    7.34737018717862    6.30129244091992
C         3.05560352695460    6.44897579899196    6.78258177461522
H         2.51730089012391    7.01743094953998    6.04273330793005
C         2.39270231664930    5.52553254368412    7.59541224543738
C         0.91594988182140    5.27974521391537    7.52746013538736
C         0.63694967079362    3.78777331591638    7.13730538338687
H        -0.45112300297273    3.63611016187715    7.27913131828367
H         0.82768373666258    3.70820605463481    6.05560107136289
C        -0.08021373371748    7.14079998635447   12.00802687043016
H        -0.86519217178526    6.48245875611511   12.36856746886972
H        -0.51414385396472    7.77503264870656   11.24030435004439
H         0.21349156653341    7.78321639874644   12.83167135949311
C         2.17175601159185    5.10375779968514   12.74248215946317
H         1.92339623382293    4.05181384365462   12.63281275802851
H         1.80329851896874    5.43939875592593   13.70591733112793
H         3.25331144805468    5.19452119751153   12.76256698000385
C         2.70934630883910    7.46675872347572   10.76865585741969
H         2.37415326152695    7.98410410383779    9.87269821915884
H         3.67079815961243    7.01243425756076   10.54004817923699
H         2.87426380531082    8.21867380866897   11.53352491666594
C         4.13638605414641    2.16246662205614    6.70884254350537
H         4.15784667644634    3.08979095326428    6.13952406140832
H         4.66825623410846    1.41419646390789    6.12910318540935
H         4.69571826910852    2.32815676143640    7.62698646386820
C         1.58469863430258    1.10118415215743    5.39305823480920
H         1.72331850276575    1.88066030231252    4.64973884397183
H         0.52041456798952    0.90051173086041    5.46586468247028
H         2.06295580979378    0.20509330821610    5.01267314207938
C         2.37270157776649    0.07327180809687    8.23111910270253
H         3.30648329230559   -0.46737181520936    8.11611805089567
H         1.56916534411582   -0.61985502399420    8.00159055564089
H         2.27627839088618    0.36870444947211    9.27301782512198
C        -0.15801122736815    1.73658368521702   11.15588476800924
C        -0.26778854095647    0.20110563455092   11.12485202742349
H        -0.02273590281333   -0.15820819208810   10.12775499854789
H        -1.28142007131693   -0.10665044291951   11.37338088563598
H         0.41706344796217   -0.25741035266029   11.82993668332531
C        -1.11420315141018    2.30268102677371   10.09091496528443
H        -0.78195689607304    1.96845351863159    9.10430974331897
H        -1.08756766818349    3.39390536134355   10.13868239191961
H        -2.13340893847415    1.95980230812851   10.26531675733090
C        -0.58477979660954    2.29057285397309   12.52879744661264
H         0.04861615352762    1.90207788121557   13.32037778502598
H        -1.61631324125708    2.01849214775197   12.74335422710016
H        -0.49477170847080    3.37672403572357   12.51667552893633
C         3.39423059385386    2.65419999449088   10.62725434358142
H         4.03556278882018    1.95973022237027   10.06397714760158
H         4.01826438476456    3.27280097467175   11.28695350532325
C         2.34949121847366    1.89892794182398   11.42401109316923
C         2.60044314782928    1.15212142153237   12.51207659923599
H         1.81246921980722    0.67591852426480   13.07777845011158
C         3.97803016967925    0.93782947759209   13.06729694134897
H         4.10386492795527   -0.09887965325998   13.38115186015091
H         4.15140701731194    1.56980007971245   13.94273719191638
H         4.74000998976821    1.16745799528648   12.32640935724365
C         0.20690858207105    6.14803800636247    6.47993509277353
H         0.32875846120937    7.20779100699418    6.69572445495016
H        -0.85850182758466    5.92562514599272    6.49164512657962
H         0.57924049848750    5.94295799841615    5.47812194478486
C         0.27785415163749    5.63355505683581    8.91567458442187
H         0.23503238641372    6.73395320473523    8.96118651171006
H        -0.77088238282701    5.28211373176295    8.86797880946390

