57
CSD_code = GOCSIC | q = 0 | S = 0 | Stoichiometry = C18H30CdN6Se2 | MND = 6
Cd       11.82427679077933    2.13158902408932   12.96419167668254
Se        9.18209702435685    2.46938378471368   13.11109551548392
N        10.89548277049589    3.65595924285141   11.35379588838696
C         9.60696352770370    3.62053689428258   11.72796880736070
N         8.63616670438102    4.32537276388757   11.17692375408365
C        11.22503147136204    4.46351354562417   10.35088182599648
C         8.94518240972151    5.13834520741547   10.18020350897465
C        10.25749077823919    5.24065060433653    9.72239658977624
H        10.51818264150166    5.89828974347910    8.90844148664752
C         7.83267391115930    5.92862715106401    9.57377672209842
H         6.90118382979417    5.68633619330725   10.07624062533898
H         7.74495369693855    5.69937278603019    8.51301473576868
H         8.03328339337924    6.99410871214659    9.67371995221296
C        12.65557569256302    4.49868955682519    9.91933196116492
H        13.26288437147840    3.85682487820353   10.55698907530331
H        13.03655488041277    5.51727425130515    9.97157758904993
H        12.74125112156248    4.16240213289857    8.88654397530121
N        11.68860234227778    0.12339749240604   11.45022064403991
C        11.40425278819296   -1.01566971585688   12.32392937929214
H        11.58586921456689   -1.96445219922900   11.79165927254489
H        10.34537199209371   -0.97683443970690   12.59019380894164
C        10.61027447474684    0.27770785722555   10.47932129622692
H        10.49683861944294   -0.62030548342967    9.85519576807695
H        10.82510181283354    1.12682552856822    9.83034360570503
H         9.66799596603336    0.46681075046186   10.99394059918937
C        12.94462145960514   -0.06532565287121   10.73269923793408
H        13.77944732900934   -0.12944769776794   11.42895261425809
H        13.12313966891367    0.79370266396608   10.08607421374203
H        12.92126370064183   -0.97614341406621   10.11697150324014
N        11.95834403450555    0.12334500448972   14.47839689836468
C        12.24293165116990   -1.01561238424485   13.60462208052324
H        12.06155337263538   -1.96446428089443   14.13685407098282
H        13.30179400382941   -0.97650015253183   13.33834137008471
C        13.03656332954245    0.27769775804125   15.44941244108856
H        13.15000056460473   -0.62033610942233   16.07351032486842
H        12.82161729836026    1.12676739202867   16.09841114755676
H        13.97886878202807    0.46690059704725   14.93488928806470
C        10.70228739830026   -0.06560947662735   15.19579996076676
H         9.86750911007455   -0.12970451572027   14.49947230440626
H        10.52366961549102    0.79328525158034   15.84259020094351
H        10.72566414948696   -0.97652812832053   15.81137515918926
Se       14.46481558958747    2.46905377017221   12.81796075700171
N        12.75117173592436    3.65628507746045   14.57465914159972
C        14.03973313719198    3.62068992098885   14.20057654761307
N        15.01060394408684    4.32507430894929   14.75210107805117
C        12.42159077971447    4.46384757766390   15.57752655264278
C        14.70158963743337    5.13793385130968   15.74891650230592
C        13.38916871705797    5.24064577997063   16.20635596063646
H        13.12844356092148    5.89828238297656   17.02030247956415
C        15.81411720180558    5.92808723094550   16.35552796504711
H        16.74564809792395    5.68577887234059   15.85314615441213
H        15.90170324162869    5.69861745234939   17.41625335826753
H        15.61366675166245    6.99362920237854   16.25578687515760
C        10.99099674807657    4.49929612284551   16.00878745479891
H        10.38436091871135    3.85492899085491   15.37291975177088
H        10.60945388360041    5.51755605502506   15.95285997862513
H        10.90541836045410    4.16641028618696   17.04274856281353

