33
CSD_code = GOCSEY | q = 0 | S = 0 | Stoichiometry = C12H14HgN4Se2 | MND = 2
Hg        7.96615894875102    1.07530601195873    2.58806313579611
Se        5.80157636000169    2.44259844375014    2.29461291669729
Se        9.76773164806647   -0.75090592321292    2.82910932123698
N         5.07787213306870    2.27464228130382   -0.35389372154365
N         7.95948860835754   -0.14451100936122    4.79868899561154
N         7.09096032684396    1.19402862905226    0.22213942558781
N         9.41279637710454   -1.93371878954262    5.28768064368375
C         7.36196612842355   -0.27851102583063    5.97927131071633
C         5.22809066046338    1.89557975302507   -1.61835965080926
C         6.33216930274615    1.14230750472217   -2.00963810385864
H         6.46205217032580    0.83119057475461   -3.03369793503289
C         8.96148609531245   -0.98073667414817    4.50641724970135
C         7.78260869457115   -1.26432369868460    6.86601552128223
H         7.30684457060616   -1.38362571868009    7.82611216726316
C         6.00109470434339    1.91512673957824    0.50672865600758
C         9.36424835458044   -3.17139384365687    7.35065700780926
H        10.11956205812387   -3.73700441905428    6.81383998709777
H         8.55892400832543   -3.83418039361095    7.66133746060688
H         9.80847604239525   -2.73813337059834    8.24562941816159
C         6.25082016806259    0.66579828163123    6.29057786153443
H         6.53377995463704    1.31098846442889    7.12122893359249
H         5.35637475397118    0.11691400590226    6.57862033474490
H         6.03312984360383    1.28360853331448    5.41756992386107
C         8.49125309891105    0.00664229961921   -1.33673215697811
H         9.15987057874402    0.58358681784028   -1.97433865697047
H         8.23019018161733   -0.90975627953563   -1.86208359641744
H         9.01023321284553   -0.23956709938618   -0.40874896819551
C         4.16453512818447    2.30541939732617   -2.57913610474480
H         3.59844380898727    1.43023141501870   -2.89550697810107
H         4.60521689597453    2.76031984756774   -3.46372629369966
H         3.49072215691568    3.00747314517853   -2.09761978846603
C         8.83402213529446   -2.08887130475595    6.47346360723616
C         7.26620088984291    0.80197740408046   -1.03658192340938

