35
CSD_code = GOCVAX | q = 1 | S = 0 | Stoichiometry = C15H14ClN4Pd(1+) | MND = 4
Pd        3.74956465027116    7.59959234768237    3.73388262333264
Cl        3.80318983534418    5.38326351394653    3.76163304252012
N         2.26852524623204    7.01507505712461    6.44318452228968
N         2.97377871291118    9.01393608450661    6.01861452841411
N         3.70350188709356    9.71279204053287    3.95245074656113
C         2.84633099014822    7.76482876448660    5.48307838435916
C         2.03391999746336    7.79169184360188    7.58014870884263
C         3.45423306735651   10.05900894938911    5.22674973028540
C         1.42863770183370    7.20477236683839    8.71669558562803
H         1.26236325684820    7.81953765185551    9.58553539414306
C         4.03689893218416   10.65903547716633    3.06990029646414
C         1.89398275097932    5.69706488396378    6.40544478408763
H         2.10062379619983    5.16943095974656    5.48583845411999
N         4.85606877678056    7.38863482239857    2.06184641728480
C         4.17411030220303   10.26142403456386    1.63997556305709
H         5.19463581137815    9.93285662987836    1.43723251736397
H         3.95532514179530   11.10318707314555    0.98835912998790
H         3.48676799976055    9.44030407651899    1.41542792075436
C         4.02443477813493   12.32641696114252    4.79826133822332
H         4.17074483329289   13.34233652125542    5.12832877884377
C         4.21424806799215   11.98060892448881    3.47270870189402
H         4.49383373635334   12.72478626310964    2.74509275306952
C         1.31390072777777    5.13540892890972    7.49083062933886
H         1.02288024749555    4.09891116089765    7.45944778326724
C         1.07891154153341    5.89366800803781    8.67041387714014
H         0.61753673300308    5.41615873913973    9.51906789764062
C         3.61200225113457   11.35376465219562    5.69638946296706
H         3.42262271592315   11.59869698466289    6.72724123534380
C         2.48369522013908    9.05658862767393    7.29472382100782
H         2.47503591009040    9.93298085857621    7.90590215140688
C         5.39992576920189    6.72366374677642    1.29655619020842
C         6.07607425065111    5.93927596217451    0.32529014173303
H         5.49281299496458    5.91117009270587   -0.59546574642746
H         6.19072688412590    4.92338756802844    0.70580260708367
H         7.06045448140533    6.35953942287776    0.11901002776187

