46
CSD_code = GOCWIF | q = 0 | S = 0 | Stoichiometry = C19H15BrCdN2O8 | MND = 7
Cd        2.68697773235424    5.76341634956626    4.35887789613132
N         1.92073557526521    3.76681913299876    5.01584950076686
N         2.32074144399718    4.93945714722450    2.29674350727492
O         1.39277547127051    7.51052931527174    4.09208123189733
O         3.57292868205230    7.69056609293094    4.04463429445281
O         5.50734878218762   12.21475451613358    4.46220048145444
O         4.50792083928029   13.83394129754623    3.24505373696859
O         0.74347877658700    0.45476329199976    1.77293941490917
O         4.96924731063267    5.06381353722882    4.08153455723197
H         5.33782214478626    5.01418558578725    4.97227809656348
H         5.32854172858718    5.87216568650434    3.69126600243144
O         0.91842351915253    6.44128489339939    6.57554774475762
H         0.05724647802844    6.05618375299030    6.75604271073457
H         0.77985726650095    7.09469221697838    5.86969762711327
O         3.69537524580259    6.21407723587089    6.54225948032452
H         2.84893341789158    6.30292499868462    7.00809666152847
H         4.03150981503556    7.11449953894645    6.44005246884152
Br       -0.71201695441045   12.39184775287071    2.95276584302224
C         2.43334533031225    8.21401325502223    3.95989809976292
C         2.31417716298093    9.67653440279218    3.75212456294163
C         1.07158579258929   10.24635262708208    3.48733094768185
H         0.19744075824440    9.61716775360114    3.41457367685148
C         0.98860982379181   11.61467145754167    3.31371306627913
C         2.10648045300238   12.42933759014824    3.39836038723529
H         2.04538044936211   13.49697745310123    3.24932946294671
C         3.32994725603961   11.84541881242505    3.67550471870337
C         3.44645681071134   10.48044517062731    3.85114448872198
H         4.40919449629147   10.04672066610560    4.07348445674214
C         4.62835254935596   12.76016291133082    3.81148662005880
C         1.69335627347976    3.05347124556703    6.11557432326252
H         1.88047166774792    3.55346677639678    7.05618060540628
C         1.24124290788851    1.73562699077894    6.08729983361937
H         1.07869895156944    1.21657059359369    7.01845939856711
C         1.00250625659366    1.09212732492249    4.87598884981433
H         0.65227564843841    0.07199016259741    4.83627592879573
C         1.23605615668041    1.81670174632974    3.72098020963660
C         1.11126566944707    1.49907899728928    2.27507567869005
C         1.53752266936880    2.74265036311487    1.58444220635070
C         1.65491917176262    3.09944984490219    0.25184682364826
H         1.40701670405278    2.40630108181924   -0.53759380204971
C         2.10600583012955    4.38693518607915   -0.02245153839761
H         2.21493574098069    4.71763104034643   -1.04308973441541
C         2.42654736702438    5.26546044820960    1.01245766576318
H         2.77996146467389    6.26606823879627    0.79887471410430
C         1.88391139789409    3.71114597679706    2.55499509959148
C         1.69698796439265    3.14769953976176    3.86121199328959

