42
CSD_code = GODCOU | q = 0 | S = 0 | Stoichiometry = C21H12Br2Cl2N2S2Zn | MND = 4
S         3.28818200538992    1.26027771444814    8.17575227383898
Br        3.25557125619860   -1.78178443516951    7.44734608234750
Cl        6.19868597695392    2.95067762932760   10.28605725525181
Zn        5.45481339993856    5.00715193526434   10.12923683726641
C         4.08515781519304    0.49046635445472    5.84344854033767
H         4.34438001054766   -0.13070140775623    5.00587792356012
Br        1.53369015907729    6.43548816335075    2.82824529191961
S         2.23708659213862    4.48575592951641    5.17200487438781
Cl        6.14101554140798    6.66891041712485    8.85717812972175
C         4.20414695320418    1.89663593772105    5.86036180877992
H         4.57857191683598    2.46451860046248    5.02800902782734
C         3.80423501838498    2.45804357852577    7.03404074913841
C         3.84501884599659    3.90521649140184    7.42152871112675
H         4.86148097079576    4.14938444888827    7.76877789828961
C         3.53655618922413    4.82344417707863    6.27737183227409
C         4.15424889092544    5.99805809611401    5.98274509191420
H         4.97520173608727    6.39014959085010    6.55783189298508
C         3.60516174917256    6.65198144360905    4.85765106249882
H         3.96233792330545    7.58684341030600    4.46683464662418
C         2.89696911439451    4.18875916283468    8.55890526977569
C         1.52126229185563    3.92472843855142    8.43332043784667
H         1.14173703874452    3.51012435312762    7.51231573462590
C         0.68743069125932    4.19519477682755    9.48567976452867
H        -0.37317385565622    4.00312702065117    9.41752477323347
C         1.22137254843257    4.72506640948124   10.67506498098180
C         0.42570038187681    5.02551492184053   11.81593395917626
H        -0.63660477077555    4.84105358261062   11.75872551639776
C         0.98616162495929    5.52777724534396   12.94251926571495
H         0.38315066447416    5.75639274249193   13.80850901702319
C         2.38792329315345    5.76501844068549   13.02055012594769
C         3.00916638178983    6.27778708286853   14.17238399738084
H         2.40979620037858    6.50813070884230   15.04109747290429
C         4.36808015139288    6.47552615095025   14.17233737297525
H         4.87785614002405    6.86871924155170   15.03721803607933
C         5.09821718751822    6.15402165333957   13.02420268499320
H         6.16982185172816    6.29361241475796   12.99119768460846
C         3.21063970547744    5.47732433229008   11.90755568486097
C         2.61280328573194    4.95460099006081   10.71240152108816
N         3.40467090091847    4.69088554621761    9.66249752314674
N         4.53832074413896    5.67343847026008   11.93732340330194
C         2.56867415191821    5.95760220525198    4.32070355357305
C         3.60318132550536    0.01097603361310    7.01953228978090

