22
CSD_code = GODCEK | q = 0 | S = 0 | Stoichiometry = C8H8O5Ru | MND = 9
Ru        5.82262324750055    6.31284095645523    2.06320559925558
O         5.79677090150822    6.57943531015861    4.10174309588370
O         3.95460959591356    7.09706859266138    2.40965477701804
O         6.49077193405530    8.71404782661970    2.09208900915712
H         6.80411470081093    8.89021943435496    2.98847951130887
H         5.67974507933805    9.22241395313758    1.96419409773139
O         4.72812317502133    7.64214183098515    5.76543568986260
O         2.72397436622719    8.21639697889618    3.91689525791364
C         5.39561211639941    5.25875179845275    0.08858525570935
H         4.59723064939241    5.40384909060601   -0.63037407613253
C         6.63294842728553    5.90913003802224   -0.09899841643141
H         6.77762218938438    6.56137688195211   -0.95233716114342
C         7.69307898010178    5.66975545916565    0.79556158812649
H         8.65623177454054    6.14032268805524    0.63618444960466
C         7.51135024186280    4.78529770577512    1.87875749220006
H         8.34307901353061    4.56328583262888    2.53763805691707
C         6.30277965157880    4.05115191898555    2.00569424879077
H         6.21427677712973    3.28832188602313    2.76983719980573
C         5.24740138785218    4.28525437664812    1.11201976553769
H         4.33567979227971    3.70385150320505    1.17563715272927
C         4.86258109846179    7.21741013868494    4.65096906850190
C         3.65539489982462    7.56007579852775    3.53972833765490

