71
CSD_code = GODFUB | q = 0 | S = 0 | Stoichiometry = C37H30NNiOP | MND = 4
Ni        9.19545944354117    8.97659282385368    0.40089456677685
O         9.10587244605572    8.49535027764533    2.24365644062287
N        10.59564306785238   10.32081690760322    0.74329225450900
P         8.08094392793964    7.17537832555834    0.01058640089137
C         9.03194497037775    9.42839658969889   -1.39419455756579
C         7.94371092597899   10.22250558525823   -1.75884374291374
H         7.18595338096024   10.48419272647894   -1.02535503212457
C         7.81422060590137   10.69377892856228   -3.05530539871850
H         6.97031502376022   11.31727035072365   -3.31776766910559
C         8.75638771529874   10.36258548791583   -4.01268696077230
H         8.65527512606886   10.73092174508121   -5.02343500647842
C         9.82299417772692    9.55043780915047   -3.67153318083012
H        10.55669157698783    9.27952718378555   -4.41773620128806
C         9.95580211811874    9.07857160043480   -2.37642953022176
H        10.79627693426056    8.43902409229391   -2.13242875168459
C        11.06404136754523   11.16286541991154   -0.29090324310466
C        10.25023976902317   12.17225985399375   -0.79731764714708
H         9.26575183259226   12.31492878659394   -0.37700269464846
C        10.70142276708301   12.97253676713274   -1.82782470010536
H        10.06193110249587   13.74993091975033   -2.21892476064726
C        11.96595975563539   12.78156794324854   -2.36032229849405
H        12.31163783748237   13.40305815275681   -3.17277234075132
C        12.78555779307523   11.79232856109017   -1.84589378919907
H        13.77497610971302   11.64236257837276   -2.25302298068791
C        12.34389850135065   10.99093979862943   -0.80953835386069
H        12.97487454845692   10.20692019387157   -0.41448965195581
C        11.24120324195565   10.39521048157562    1.86905156818920
H        12.06664058635755   11.11369034616883    1.92047367485827
C        11.00200984491831    9.67837875113988    3.06885162169965
C        11.84992963956717    9.89921650364879    4.17144560802131
H        12.66121342343918   10.60709776525644    4.06154221442225
C        11.66892787146578    9.24048954554886    5.35629569172334
H        12.33042104949028    9.41833975021201    6.19073197359076
C        10.61310743413588    8.32726709963094    5.48407992671941
H        10.47419738036732    7.80645733686693    6.42146551562375
C         9.76333016353710    8.08942565010450    4.44192437829436
H         8.94874476986755    7.38439269477321    4.52874228382756
C         9.91888538532266    8.74924920605513    3.19215662197414
C         6.29995644859361    7.39362655052879    0.29719498356526
C         5.91236264793016    8.49798290479155    1.04816583040978
H         6.67879829679772    9.17605781685148    1.40973703379576
C         4.57589915694561    8.71600121118654    1.32821995566140
H         4.27592565137894    9.57337741058996    1.91288453337514
C         3.62036006014384    7.83122996764226    0.85474129975465
H         2.57514575214382    7.99902100911137    1.06959725710178
C         4.00197940016032    6.73146618995964    0.10199357220728
H         3.25400684842724    6.04417972035488   -0.26664260939734
C         5.33807015590213    6.50866569954963   -0.17916732557003
H         5.63666920765371    5.65356906125385   -0.77006169597177
C         8.10961832266805    6.29457835035492   -1.58453438513312
C         8.80886964698991    5.10884412864664   -1.77208222086995
H         9.32359652570472    4.64799703895969   -0.94066711176724
C         8.84402870571389    4.51383848855860   -3.02172152667311
H         9.38695232519285    3.58998619747832   -3.15987101449519
C         8.18999924601625    5.09987759791931   -4.09159318322339
H         8.22349512332343    4.63509489421299   -5.06591333489262
C         7.49441365049470    6.28541803135969   -3.91074675657654
H         6.98600096551638    6.74763247436189   -4.74389490153063
C         7.45601269812239    6.88140750897399   -2.66584534203910
H         6.92138660067571    7.80974489173916   -2.52122263213019
C         8.56572502025955    5.88285138101365    1.19983723618966
C         9.93238844387362    5.72187670916357    1.41441455420629
H        10.62616946966846    6.34850207206512    0.86451426337600
C        10.39153413240586    4.80031833415132    2.33436778009347
H        11.45217476426884    4.68578649070286    2.50479074836421
C         9.48539782519124    4.03333025351441    3.05077153117599
H         9.84048003903322    3.31906459016870    3.77910946353743
C         8.12607344720993    4.19209811492802    2.84250894294746
H         7.42085576506944    3.59992259671855    3.40791751978971
C         7.66189196187462    5.11610414538708    1.92086081839548
H         6.59926807881221    5.24738362785906    1.77447446700037

