37
CSD_code = GODGEL | q = 0 | S = 0 | Stoichiometry = C14H16Cl2N2NiS2 | MND = 6
Ni        7.26486547995599    2.10382173058726    3.59199437718918
Cl        6.20599907857260    0.64169988876439    4.65546787450398
S         6.03290182909553    3.76308106534026    4.70676203031749
N         5.52411423537640    2.46521478000961    2.10004283284442
C         6.51400251152801    5.21791577023848    3.69125973927075
H         6.00007658872101    5.14766652884862    2.73307086209617
H         6.19252677902595    6.11815815029485    4.21885271660811
C         4.38713161430214    3.39389666911906    4.03714732447551
H         4.01805085150292    2.60574511150666    4.69961463164763
H         3.76211933624201    4.28154044016799    4.14882385906138
C         4.37594329861990    2.87975886340003    2.62501584581905
C         3.17512342212008    2.81332169437581    1.92657108918469
H         2.26217609152956    3.16364004228516    2.38389238691091
C         3.17733197319004    2.27999574176796    0.65006740069012
H         2.25847549640269    2.20952957699123    0.08675514149745
C         4.37612450192593    1.83658301421041    0.11231799450623
H         4.41935605619373    1.41005047085903   -0.87682602229829
C         5.52531222957042    1.95420165316170    0.87372466376748
H         6.48921661132152    1.62699619529548    0.50579886814257
Cl        8.32366534424366    0.64178361863223    2.52834698675386
C         8.01592625865005    5.21788618815967    3.49300742394995
S         8.49689444798930    3.76310755950165    2.47735911687357
N         9.00559745280880    2.46500012260612    5.08402594496140
C        10.15376414657680    2.87969390248534    4.55916491092750
C        10.14262257481483    3.39377740249146    3.14701420247906
H        10.51157792402100    2.60553966779943    2.48457599752041
H        10.76776521826210    4.28132256519797    3.03529107099894
C        11.35451089521563    2.81347829767117    5.25775825743102
H        12.26745632349764    3.16392033851829    4.80053142789062
C        11.35222938244628    2.28022498608062    6.53429292398934
H        12.27102250868175    2.20995193972237    7.09772488531351
C        10.15343834822973    1.83666167121388    7.07192323619693
H        10.11015136735172    1.41017645381181    8.06108507204335
C         9.00432585901943    1.95405570007377    6.31036773028325
H         8.04043014338445    1.62670212839643    6.67818674172988
H         8.52983632736909    5.14754102869643    4.45120089051914
H         8.33743749224102    6.11815904171813    2.96548956390344

