82
CSD_code = GODKAL | q = 0 | S = 0 | Stoichiometry = C25H49Cl2N3P2Pt | MND = 4
Pt        1.31609654179023    4.02299063562718   11.40764686856969
Cl        1.93711103426204    5.20402819580896   13.28849332562861
Cl       -1.21708536554873    6.75750709639277   12.09465947207908
P         0.05761962561531    5.94271717034450   10.77851580317600
P         0.28690108955262    3.02426823865193    9.63481617408460
N         0.87466960144154    7.21430229901266   10.07784383069490
N        -0.24551870337252    1.43333109936286    9.42771481288487
N         0.97749549139607    3.33170715180966    8.14413311119351
C         2.34574256499784    2.37128722188723   12.13362782464613
H         2.36536340169556    2.48112177083777   13.22516055824082
H         1.81546000135191    1.43342516047020   11.91601754821423
C         3.79120377048156    2.24384100225241   11.63506280760134
C         4.46669036140432    3.61885925387308   11.60443463988709
H         3.93131283093711    4.28388357935549   10.91762875179960
H         5.50100141501895    3.53590064931122   11.27314156678319
H         4.45092495439954    4.06773911118567   12.59408135361870
C         4.58184676411872    1.32648704467258   12.57779985032210
H         4.09558102019575    0.35685890029695   12.66663312616489
H         4.64900683079932    1.76819753406430   13.56879349749074
H         5.59123950712002    1.17194011949593   12.20028117836035
C         3.81019274526580    1.64074232922755   10.22795537008005
H         3.54546512559028    0.58603111956507   10.26050905668684
H         4.79914636001348    1.72926728207696    9.78181200310063
H         3.08640056846112    2.16023453845885    9.60183492638550
C        -1.09324054131325    5.40446804707286    9.41474869191821
H        -0.50618813634338    5.49114862862855    8.49413885003530
C        -1.35641708623517    3.91991365990580    9.70378376524578
H        -1.69113360695711    3.85453444021902   10.75136439801672
C        -2.53236457188434    3.59238673866214    8.79290379509413
H        -2.20314872196399    3.52962619356749    7.75584089849948
H        -3.03584858438512    2.66351634887269    9.05399575104597
C        -3.43770450063113    4.81367650984550    8.98876008264847
H        -4.05434413324627    4.66912825774658    9.87676634761107
H        -4.10330000286669    4.96837951888251    8.14009131165653
C        -2.48715579336410    6.01075884407605    9.19874803464656
H        -2.80232529547449    6.59800617127196   10.06167371191053
H        -2.48921987817223    6.66628169703198    8.32683597331255
C         0.20078264093306    8.39244664004641    9.56522587589719
H         0.15735466915084    9.17716518042494   10.33396416659972
H        -0.82191204109951    8.12618232977045    9.29231656808052
C         0.96558009805745    8.91291760837309    8.34944307056713
H         0.95305424293112    8.14980665180648    7.56801241766942
H         0.47258833689509    9.80661667084104    7.96325282484681
C         2.41049118840732    9.22239673682112    8.73424108142835
H         2.42335046337581   10.03719336375820    9.46169559307455
H         2.97123525789804    9.54713942716589    7.85580491379002
C         3.05968308957354    7.98445817785491    9.34946344621858
H         3.11642616441668    7.19063405115794    8.60215538479250
H         4.07175163216686    8.21157003804791    9.68587111582987
C         2.22716123827919    7.50149264992127   10.53217847147217
H         2.64721286748659    6.58671128325847   10.96376342619735
H         2.21917676276586    8.27165105459932   11.31489940035110
C        -1.12056971594412    0.87984110054377   10.45185763573183
H        -1.76426699171817    1.66421856743715   10.84904917644823
H        -0.53416489414274    0.47064126908556   11.28618878670580
C        -1.96108223179246   -0.23489304196193    9.83055985926114
H        -2.56611012344438    0.18207553561076    9.02278493537697
H        -2.63236699873181   -0.64940336503140   10.58410642173233
C        -1.05121553457777   -1.32465615890611    9.26995715504403
H        -1.64436168247126   -2.08826615839976    8.76382223367935
H        -0.51397308927609   -1.80509117307672   10.09081191540528
C        -0.04598262831090   -0.70517940744614    8.30245679285535
H         0.66123307536823   -1.45927360367027    7.95363139043846
H        -0.57310936104885   -0.30247764539717    7.43528678937300
C         0.71037192834005    0.42225488129031    9.00173369289037
H         1.25284091241627    0.00865995036026    9.86158589839865
H         1.43309995436984    0.88245860145812    8.32897481083452
C         0.36402936913542    3.00738547937409    6.87030147177147
H        -0.11683812911040    3.89850030270772    6.43836347637026
H        -0.39522935898132    2.24312334189124    7.04080284084834
C         1.42006926473705    2.50280136996669    5.88508988545746
H         1.84457367980164    1.56703641969938    6.25250876146482
H         0.94772969301567    2.30560474901291    4.92113637415070
C         2.53373714833466    3.53564212338691    5.73187548802364
H         2.12687671936993    4.44687979730248    5.28578362991257
H         3.30976479953073    3.15468558281177    5.06609427775889
C         3.12462763018237    3.85867132748724    7.10215196252796
H         3.58961082555748    2.96481440203331    7.51892841657684
H         3.88863583825065    4.63274548409188    7.01644615860999
C         2.01574100203858    4.33840111188129    8.03529488493587
H         2.40405087138156    4.53096895973103    9.04561678078407
H         1.60596473240877    5.27855477318309    7.63626127046795

