44
CSD_code = GODLIU | q = 0 | S = 0 | Stoichiometry = C18H22CrO3 | MND = 9
Cr        6.34359071213684    6.32521119194884    7.65427710213349
C         6.50925099255952    8.07907579277419    8.10594601549965
O         6.57375141073094    9.21347229189393    8.32639805836903
C         4.77620070744901    6.96982268346839    7.00339931786004
O         3.81278139428732    7.44492202539391    6.56830793552757
C         6.92954162301142    6.97170359898128    6.06018448822256
O         7.24891425577491    7.43385630599358    5.04718280355487
C         5.94550206217082    4.07174194618885    7.62056809757437
C         5.39767326688852    4.64684448537638    8.79448051207032
H         4.36518874639706    4.45874660390785    9.04986971386536
C         6.14186886965594    5.37546968965958    9.72725852394370
C         7.51049339027912    5.55976752891318    9.47217790571278
H         8.13579192970568    6.05576812796294   10.20643227325633
C         8.08149767946794    5.01402858708376    8.32772293672071
H         9.14972293111121    5.10716160696015    8.20061855380267
C         7.32112647656169    4.30418519537132    7.36752169882008
C         8.05223819215372    3.72680161592646    6.17005923514367
H         7.48602241613809    3.97308446260664    5.26954145494961
C         8.12848711900094    2.19611216055127    6.27623890340401
H         8.32987686510852    1.90503892880976    7.31109554843624
H         8.96399704899020    1.84319537383248    5.66785829599405
C         6.85661135723203    1.51744642250889    5.78332762484954
H         7.02961221890842    0.43812443438446    5.75205194187008
H         6.64713690133675    1.83949582996135    4.76205522627161
C         5.63553093232339    1.75791174153127    6.66520496525873
H         4.84258030711725    1.10186662361539    6.29790977334502
H         5.87196370491379    1.43615946236648    7.68442866789181
C         5.05195469014728    3.18946614416782    6.74351538382288
C         3.64437282626310    3.01862765979898    7.34647809942063
H         3.05292444921449    2.38772222928417    6.68609167861571
H         3.12841497278392    3.97281216012751    7.42607281481430
H         3.67594061359647    2.53325418712921    8.32051926508853
C         4.81511640704342    3.82049173550057    5.36292647435785
H         4.19295144413392    3.15940009293877    4.76298390345393
H         5.72345480402373    4.01947794981993    4.80807671674339
H         4.29642565563272    4.76925815446689    5.48635216589761
C         5.52034685290303    5.87212073577651   10.99910412676993
H         5.69454411649028    5.16013166588314   11.80930890603567
H         4.44607861069737    6.00098183235313   10.88477752628679
H         5.95346651180118    6.82694753189047   11.29111998096287
C         9.44859979694775    4.31185211891259    5.94277660947868
H         9.41467895455516    5.39951109751778    5.92415822256735
H         9.81660323856545    3.97379249155713    4.97609693981217
H        10.15867254378955    3.97923749490308    6.69772361152354

