50
CSD_code = GODMUJ | q = 0 | S = 0 | Stoichiometry = C20H25ClIrN3 | MND = 8
Ir        6.03372082691048    9.00691990165078    3.77375888094439
Cl        3.94703938807442   10.08283656347607    3.93970467907649
N         5.05042204881416    7.48516216214511    2.92569750379881
C         8.13640482781770    9.52719508048094    4.37772453845696
C         3.63473744266640    5.81019571281555    2.90310258709983
H         2.94676769386106    5.01550325552794    3.09654294372885
C         7.53995386904389    9.67278755171048    2.12780419892883
C         5.65206793237435    8.26443656018105    6.73876062894836
H         6.25040825694118    9.12619531543835    6.99290464359261
C         4.57440620801290    6.84251256876193    5.14966980047305
C         5.13049003698998    7.48670109916966    7.76131163063791
H         5.34448562878108    7.74509817846188    8.78882204516887
C         8.95236127668629    7.59862083966772    2.83583681917508
H         8.52139907638259    7.03496740184716    2.01085879594365
H         9.01525729250670    6.94879431413951    3.70611817586649
H         9.96689625946237    7.88905607986094    2.55364542470071
C         4.04190045164497    6.06615838453976    6.17219534614852
H         3.40530118098192    5.22557022896686    5.93594911230175
C         7.37098984805265   10.71135668487090    4.18270101760965
C         4.32976623398174    6.38955102917645    7.48348814579739
H         3.92351490224016    5.79711425842103    8.29001539818775
C         5.40337287232160    7.95627292921971    5.40814338884982
C         7.52357244582250    9.35366967227886    0.66726529180203
H         6.92402126798001   10.07476439736091    0.11796990691458
H         7.10338194325604    8.36420820904006    0.49211880660415
H         8.53951207901500    9.37015586552389    0.26761852279380
C         7.07469612296144   10.82310072459753    2.76224628886599
C         7.20484344153498   11.84618502241991    5.14592096756669
H         7.32452605433096   11.51271830140325    6.17400607319957
H         6.21569155860762   12.28812535292638    5.04438246374887
H         7.94848225403397   12.62082856554072    4.94595165298040
C         4.21621244484161    4.38409874310454    0.06702753350988
H         3.86440632830973    3.99941021905489   -0.88572576672420
H         4.03960243395357    3.63223005019519    0.83259691987292
H         5.28602093791258    4.56409806471445   -0.00340803835691
C         4.35793239927795    6.63146832045173    3.73987105437732
N         4.79870342875557    7.22700145153808    1.68627274719393
C         8.91168469691598    9.13164751424834    5.59527471599970
H         9.97698257626550    9.28335745994670    5.41103303368093
H         8.75587022608267    8.08345961825579    5.84400444447341
H         8.62740591102864    9.73305642062493    6.45426191717336
N         3.93984075300737    6.22568640944169    1.65289968677011
C         8.13739569006926    8.81770073425628    3.13538967806176
C         6.42597139013607   12.02176842466490    2.15354862527261
H         7.02127525970476   12.91339498608133    2.35582369278893
H         5.43449233541053   12.17240101185482    2.58096396038891
H         6.31938769332637   11.90964121241554    1.07746808882437
C         3.48351723319100    5.67991864469654    0.40376371050128
H         3.67671344695595    6.43572847542024   -0.35978123102777
H         2.40679409277000    5.50297002742954    0.47067954729564

