60
CSD_code = GODMET | q = 0 | S = 0 | Stoichiometry = C26H29ClIrN3 | MND = 8
Ir       14.22754054820833    4.10429205941412    1.00184152075877
Cl       15.43598826947526    4.94748142520011   -0.85950375647120
N        12.20160440394294    7.69427553240961    1.66233120910570
C        17.48376131998141    6.48764539992097    3.70639216134774
H        18.23603831399224    6.98089118658634    4.30393598214209
C        14.84624966251911    1.91821040339782    0.78003882971698
C        16.09066776532527    1.36253561569216    0.16301925757961
H        16.36526987877640    1.93189485867605   -0.72475190582040
H        15.93006301185665    0.32542652581411   -0.13950384841318
H        16.92523681526348    1.39005694191535    0.86052694124075
N        11.61785767544971    7.36009176372887    0.54159943673567
C        13.05271170382264    5.73430005464349    0.98951565699103
N        13.03662153697529    6.71859724153108    1.92515909924207
C        16.85290808612265    4.82869628966272    2.09614018256475
H        17.15468882782296    4.03570594626876    1.42696565502714
C        14.59599751668053    2.15906908905602    2.14301990218708
C        13.23333040279027    2.61058342268822    2.25671589276066
C        17.82506274961677    5.44689502698388    2.86141026240124
H        18.85252363222560    5.11948382475401    2.79179997892609
C        10.67927092677206    8.26150531104104   -0.06292704020003
H         9.68776318515005    8.13694831668383    0.37577613400386
H        10.62957296812236    8.06942620801201   -1.13293998792205
H        11.01440346194059    9.28111124641431    0.12119782642594
C        15.51153760142032    5.21064733080769    2.14968505699875
C        15.19061204384440    6.26774302873100    3.00641144005838
C        13.59923352209074    2.05704493891008    0.05523790834915
C        12.60579278981242    2.43507469259816    0.95985460284803
C        13.76087181357574    6.72727755014488    3.16673559554868
H        13.24228599013943    6.05387267293722    3.86268801023362
H        13.71148225387700    7.74349591998833    3.56312921037367
C        11.50771798756694    5.52704470665082   -1.10448457212165
C        11.13376911059443    2.53018769068851    0.70920233597742
H        10.92152003162380    2.68794570019740   -0.34587235693426
H        10.68907400081060    3.35010052043083    1.27157976781125
H        10.64441296274767    1.60516154758196    1.02274510084226
C        12.07524101130105    6.17365357565171    0.07541810745189
C        10.12375122382897    5.38483482108127   -1.21377829793373
H         9.47765816446134    5.73778545678425   -0.42224792143716
C        12.32815500929214    5.02598490098360   -2.11103006178597
H        13.39882209881123    5.12961805523079   -2.02319849496342
C         9.57225784720962    4.75322006764899   -2.31258703133940
H         8.50023931128034    4.63956199960955   -2.38329493017890
C        11.76652839915861    4.39937982494492   -3.20925647535351
H        12.40933131656088    4.01431371424597   -3.98644951796250
C        13.44482505674577    1.70772857527978   -1.38856255495965
H        12.45820485716437    1.97987260724066   -1.75731473502985
H        13.58607145332437    0.63435796018799   -1.53282127517970
H        14.19073248368047    2.22877381044487   -1.98781071026129
C        15.51708526161891    1.92029553193775    3.29841180064238
H        15.25162902878939    0.98276898711600    3.79181204052529
H        15.44924009998563    2.72208610377223    4.03173881441026
H        16.55155537917416    1.85271252693234    2.97148822850785
C        16.16609761271399    6.89671336842272    3.77009620356234
H        15.88544393617720    7.71235205770484    4.42286094196436
C        12.48686282171765    2.74334885095739    3.55015749159414
H        13.13011500201685    3.14668870852902    4.32969248289974
H        12.12975294246748    1.76460895381104    3.87890893021176
H        11.62220395122080    3.39592667776563    3.44110662775612
C        10.39234225009884    4.26211676292829   -3.31553598114113
H         9.95881071028369    3.76907611062969   -4.17327517232232

