60
CSD_code = GODMIX | q = 0 | S = 0 | Stoichiometry = C26H29ClIrN3 | MND = 8
Ir       10.08598252338507    1.59344484374216    3.65504747326532
Cl       11.30517659431299   -0.30829995447421    2.97328783617860
C        10.64530828230774    1.40930931835941    5.85466628873359
C         6.93631114750122    0.48216678283267    0.88437613474174
H         6.70728295226463    0.70251557878837   -0.14809466992414
C         6.09375422923818   -0.32871012805628    1.61983996152271
H         5.20264483184054   -0.73654308843863    1.16556283535818
N         9.41922554611505    2.23518479657071   -0.34825420060378
C        11.58140930847144    2.34420057903695    5.26534424973256
C         8.39725962576633    0.73914827762159    2.84481249363770
C         8.07672684691577    1.00107134906764    1.48714977412912
C         9.10724579273810    1.80141325098288    0.88606619826946
C         9.35597171346108    1.97010608073764    5.79027194395923
N        10.57715416520819    2.85979737902569   -0.34872635982709
C        11.39401224375818    4.77077674927238    4.33410403751407
H        11.24806497016823    5.52445888239451    5.11079325175915
H        10.87343821690499    5.11206601987070    3.44009546807285
H        12.45842630085373    4.71588468208226    4.11657065361785
N        11.01492279938018    2.81544506490897    0.89536719225179
C         9.45415534342106    3.19131372762315    5.03527323629876
C        10.86033971528239    3.45663631241732    4.81442605475911
C        10.16375290981111    2.19181281106544    1.73587853553293
C         8.12587731348138    1.51243856787799    6.50812391315663
H         8.19787270185227    0.46502809349169    6.79273438010417
H         7.23626888095088    1.64537092862946    5.89513799742693
H         7.99919409190614    2.10099859776627    7.41982726114798
C         7.54458898837674   -0.11337675739318    3.53389970438369
H         7.76561641820347   -0.39709264221848    4.55140320923729
C         8.36917994006928    4.21915586673585    4.93123740735737
H         8.32830060438689    4.81453831147958    5.84645015066453
H         7.39936925125195    3.74686189845154    4.79019417749151
H         8.54660908876136    4.89311803464591    4.09583935769310
C        11.07065403004440    0.18085742144836    6.59331825075950
H        11.60171122081072    0.45683014874025    7.50702961827166
H        11.74203803134255   -0.42052224553609    5.98117883279349
H        10.21526356394978   -0.43401064078435    6.86439912221295
C         6.40726044853100   -0.63399630290823    2.93468215074763
H         5.75975612125556   -1.28950563753065    3.49996889106018
C        13.06477106437808    2.15664454028703    5.30272748897187
H        13.58179446070342    2.94532244367604    4.75909738559532
H        13.34006041173956    1.19936500797231    4.86023356259620
H        13.41908042218819    2.16320486888783    6.33538535942786
C        13.37858630791590    2.56311720014262    0.42104254478427
C         8.70003378298461    2.08184551427255   -1.57800359476562
H         7.72872698434895    2.57410469346406   -1.51332018423261
H         8.55439660655893    1.02287307052230   -1.79378601299404
H         9.29231256072918    2.53880136118035   -2.36840231775133
C        12.33069852982957    3.31929086697846    1.20083561323603
H        12.47658750206684    3.16955546904913    2.27179500869178
H        12.37148239113741    4.38535688979466    0.96001829199104
C        13.56384956428169    1.20756597856328    0.66455394002264
H        12.96292628537965    0.70345635827777    1.40887238000172
C        15.28346623376454    1.14153308738287   -1.00999463965364
H        16.02671077248256    0.58926550807809   -1.56627331892702
C        14.14479740284558    3.19987683879379   -0.54383745708224
H        13.99880120469206    4.25275417423588   -0.73962746693861
C        15.09822439312863    2.49129670751604   -1.25461125597803
H        15.69484393717923    2.99410449060174   -2.00177550164676
C        14.51362927816270    0.50202787862595   -0.05246261164483
H        14.65139314914741   -0.55085590683961    0.14134997283312

