81
CSD_code = GODSOI | q = 0 | S = 0 | Stoichiometry = C22H52ClFeNP2Si2 | MND = 4
Fe        7.03574495260776   -0.39710532376607    4.68510259794129
Cl        7.34791530380400    0.81572009270787    6.40862927462218
P         5.94872354073645    1.19552894697130    3.53199574635279
P         7.73932373251605   -2.19341699598961    5.87633958468395
Si        5.83865914358476   -1.23939292042004    1.71996852682222
Si        8.43247319927647   -2.32774428820327    3.00266067735567
N         6.98617987747658   -1.42780832330070    2.96504298751215
C         4.45007912587389   -2.56034010925125    1.72186504218549
H         4.87645058394150   -3.55603312261244    1.66326392557529
H         3.80305995361008   -2.43434904737763    0.85934711048365
H         3.82766749605534   -2.52046522088727    2.60934699268208
C         6.52929595571099   -1.24369060141097   -0.05994765933933
H         6.60200401005187   -2.26605816077279   -0.41146066981818
H         7.51799479084654   -0.80575799993954   -0.12361770291564
H         5.87911368782891   -0.70983879456268   -0.74571852128505
C         5.01607863435558    0.44023119114292    2.15005990941850
H         4.94420466424159    1.12660642923945    1.30995458493807
H         4.00674815741940    0.23503819532974    2.49862730727026
C         7.11357334579803    2.41841054332105    2.68108438437389
C         6.46502659744130    3.65805107635676    2.07147492020203
H         7.21098823090262    4.20639885892682    1.49548563841554
H         6.07960602235834    4.32785885843743    2.83511092688480
H         5.65636545778874    3.38699691125896    1.39525513760311
C         7.81399738274179    1.62474036960470    1.57672150886202
H         8.70635915399788    2.15452128229025    1.24389889339799
H         7.16364821404241    1.48627127002539    0.71778229371780
H         8.10444699508162    0.64502204752690    1.95171871406509
C         8.16489110940181    2.81617857859930    3.71842172477721
H         8.91618797954073    3.46574431648463    3.27011058568114
H         8.66342678462930    1.92171005658538    4.09757260619703
H         7.72286361862212    3.33381160347616    4.56454862762322
C         4.57041012717228    2.12568973163741    4.46571815785671
C         3.91874404001188    1.01934870932604    5.30429374289745
H         3.08730313858130    1.41922748826797    5.88305591342774
H         4.64951251839955    0.60660809745140    5.99938932850641
H         3.53727306321222    0.21505709618990    4.67515665977158
C         5.13312555137569    3.17861288311578    5.41869715800116
H         4.34093063193862    3.52876909028646    6.08032886205836
H         5.51978254473366    4.04069097460662    4.88169682649085
H         5.92192907832071    2.75556777058721    6.03470192539298
C         3.51025135035579    2.77250893787483    3.57266786544383
H         2.74599743313667    3.22240663640438    4.20674206362807
H         3.01850333001287    2.04841456754966    2.92882588205405
H         3.92958805630031    3.55754268029236    2.95195081986722
C         9.84480890177124   -1.05664706351609    3.25696454887516
H        10.06884388105577   -0.50912195662982    2.34781145167930
H        10.77243286815817   -1.50360032917755    3.59823334950256
H         9.52150385462804   -0.33283898437206    4.01240449528768
C         8.78341991529279   -3.46475275405735    1.52623034999324
H         8.99323615962020   -2.87767135349366    0.64252813943856
H         7.92688402491366   -4.09116094447168    1.31031518206519
H         9.63530263349086   -4.10904973544432    1.71027826530814
C         8.38366901884599   -3.36248770913591    4.61925963914210
H         7.74517440468174   -4.23646891687695    4.52684206816324
H         9.38037112784811   -3.69979408298855    4.88672244021996
C         9.01411214913031   -2.31400606882448    7.28473070203337
C         9.43978959152795   -3.73930143891146    7.63660443150553
H        10.23694023661027   -3.69514406229937    8.37871445324534
H         9.82017764632110   -4.28519619627658    6.77731364516816
H         8.61851859723401   -4.30571818047388    8.06493260217920
C        10.21912204806270   -1.53184918652972    6.75445989767112
H        11.01153989335322   -1.50596431016549    7.50163339329120
H         9.92566077452431   -0.50581530311180    6.53611264959663
H        10.62111886803307   -1.98492933125307    5.85098782536590
C         8.51642416814715   -1.61709895566994    8.55064567528427
H         9.35857568735150   -1.43697467817306    9.21832463549405
H         7.79927878876056   -2.23254596242863    9.08573107739741
H         8.06284774919774   -0.65897373218371    8.31231114459666
C         6.07908887021573   -2.94409685072950    6.42473535586674
C         5.21904746965081   -2.77500432021077    5.16768162539310
H         4.20921290362538   -3.14587951976337    5.34220628450130
H         5.64234683086467   -3.30057681882577    4.31596398441632
H         5.15704235804501   -1.71005336572906    4.89843338052816
C         5.45349087702915   -2.08564737732999    7.52783374184642
H         4.37070646670228   -2.20836544646853    7.52490218838918
H         5.68061203963400   -1.03209546823126    7.37038464641804
H         5.81277672413668   -2.36774936893480    8.51240330660856
C         6.09824499681261   -4.40981111221687    6.84950248995079
H         5.07608940744967   -4.78452452786251    6.90532276900975
H         6.54633849975314   -4.52938694256364    7.83247747314399
H         6.64400100152893   -5.03098202814214    6.14318980967364

