34
CSD_code = GOFGEN | q = 0 | S = 0 | Stoichiometry = C14H11CoN2O4S2 | MND = 8
Co       -0.64608123992397    0.91128252900124    6.78534061920328
S        -1.30510255457355    2.61673763837493    8.02378236221718
S         1.35329995870636    0.80668967945635    7.87417086976230
O         0.98760897195853    4.48454045391846   10.55614788659146
O        -1.16288248755023    4.63426579955455    9.88930653878089
O         2.55960119699478    1.90460285451555   10.88614144239314
O         3.23474783607023    3.24267304952004    9.20600665877763
N        -0.87245493547886   -0.01491370621371   10.67050732750340
N        -4.16477113848483    0.30702947579595    7.97879629782163
C         0.11998134033228    2.92216948706122    9.01502526596695
C         1.21741257770931    2.12284761587963    8.91826265886286
C         0.05847683438145    4.07779876054733    9.90087869940130
C        -1.33483678608213    5.76726908837764   10.72936370063006
C         2.40302176909336    2.40968023713147    9.81444755340883
C         4.34871624790036    3.67312123220406    9.98335945835095
C        -1.71267722331622    0.90456184959618    8.43401356713001
C        -1.23459040614571    0.40187245191255    9.66586784333727
C        -3.06573334311400    0.57462753988685    8.17402690453121
C        -1.70973841534299   -0.43820172477401    5.54163909968597
C        -1.99051926755234    0.89936450038884    5.17194317120713
C        -0.77264567984368    1.51822032268308    4.76646232867306
C         0.26120528877504    0.58489485414602    4.94058316492764
C        -0.31325207093268   -0.62587793531095    5.44654119942729
H        -1.09400783757601    5.50916947903198   11.76213372714106
H        -2.37896259381007    6.05417050090275   10.63722770341883
H        -0.68091600808549    6.57959802754838   10.40634881556801
H         3.99204376190954    4.27386314094285   10.82157961015312
H         4.96867081322489    4.26755554380198    9.31774194946249
H         4.89902779193861    2.81140490803452   10.36534391711193
H        -2.44083867471968   -1.18928704665978    5.79179157392787
H        -2.97597285233561    1.32825848793232    5.08089229545555
H        -0.68119065027288    2.49587808384406    4.32269833376765
H         1.29295108778072    0.71278106777345    4.65585672835967
H         0.21350868836603   -1.55724824680549    5.58207072704332

