73
CSD_code = GOFLIY | q = 0 | S = 0 | Stoichiometry = C33H34NO4V | MND = 5
V         5.68448032528579    8.27883718509089   15.23191945999358
O         5.89253843149548    9.15237550520290   13.79605465136595
O         6.00789846222507    8.90805326780360   16.77084831432107
O         4.26526156097729    7.73117800608353   15.24285356083190
O         6.84063731956340    7.12474188331382   15.09485353729108
N         4.48142596215439   10.47586249774512   15.45900953361994
C         4.11371757377197    7.45170027633377   18.16454618216703
H         5.12990246244760    7.07895638240240   18.20395004207308
C         4.75769451308501   11.15527920176345   14.21838945465318
H         3.92087889615038   11.79868344141635   13.89812790228962
C         4.85647341813943   10.94572715322414   16.76883217850731
H         4.05089345972608   11.52309468842259   17.25305205728277
C         5.50260026891047   10.53716727395576   11.86517376872178
C         5.15270079667833    9.62859907575373   17.57488073504262
C         3.90322549378721    8.79076224757883   17.84464995986305
C         4.98296368383178    9.98908034178168   13.18805628487287
C         3.71130731050043    9.19861466806848   12.88154744468655
C         6.02466567757468   12.00815957913023   14.29084155835572
H         6.05878563837176   12.66776043766352   13.42140530758947
H         6.89667488178235   11.34856615977059   14.25560164105809
C         6.06145869208255   12.80133587154288   15.58894847003011
H         5.17165531688199   13.43083793501983   15.67518591613626
H         6.93868113106988   13.45039721984393   15.60828361250983
C         2.41772458570895    9.65696600255933   13.09113423476851
H         2.23105833860948   10.63936733480576   13.50144093070227
C         6.78386850469016   10.22817591504994   11.43154497189966
H         7.40342714578426    9.59173429872457   12.04806155034368
C         1.75314982268108    7.09318661847169   18.37595732514298
H         0.91843308343958    6.43644068015911   18.57208393801942
C         5.77539156338961    9.95654661581760   18.92586190214726
C         2.60031315943074    9.26898868140914   17.81113761808134
H         2.38913588340207   10.30385637138846   17.58146452481275
C         6.91132496420106   10.54562710827515   21.39609121920954
H         7.35111192879548   10.77496255617340   22.35556984142992
C         5.60212767253317   10.90967195793436   21.12705489637435
H         5.01909180846956   11.42231919733208   21.87829023268000
C         7.08397379568439    9.58868866622984   19.20416712324875
H         7.65074035557052    9.06564911548494   18.44640144510823
C         2.80281530221181    7.13435006037731   12.02339451406769
H         2.95812743275705    6.14967988319183   11.60642317157082
C         7.64961144957887    9.88133277323633   20.43263858088492
H         8.66917104980743    9.58888820070315   20.63833919684021
C         6.11955688186050   11.80688247070193   16.73927533536224
H         6.98746527722449   11.15584509729483   16.59933592858971
H         6.22460840276578   12.31606694075423   17.69940842310594
C         6.45068382525375   11.52998702585127    9.44552003488119
H         6.81757017872137   11.91625756075371    8.50594908089782
C         3.04962868196303    6.60880347805996   18.42203271187293
H         3.23012005132963    5.57043704679627   18.66032204433770
C         5.03472895980497   10.61452555399331   19.90110603395599
H         4.00858020823222   10.88717974122519   19.70341947744597
C         1.32951111782468    8.85983320052244   12.77457144135897
H         0.32961936144719    9.23037936351157   12.95024080426271
C         1.53430093168048    8.42422036023133   18.07532552481842
H         0.52628876239037    8.81215255905086   18.03837372472079
C         7.09626575364676    5.78431812522195   14.98818173707317
H         7.69790727693843    5.46350243808922   15.85938792909131
H         7.69450278865702    5.60319116869658   14.07555267437949
C         5.16801360818288   11.83659079155377    9.86938108099081
H         4.53264344206391   12.46160680597745    9.25884810416443
C         3.88854646570776    7.93080516678508   12.33296980384337
H         4.89654565882749    7.57623286223220   12.15608806890253
C         4.69382424786031   11.34108466253710   11.07005940188678
H         3.68742108295193   11.57113974211232   11.38727261037036
C         7.25609304805951   10.72162608478962   10.22812328882920
H         8.25520127103119   10.47334570859216    9.90030210952845
C         5.79632973208820    4.98060707954227   14.92896986696279
H         6.00564010999587    3.91571572954510   14.85892985039408
H         5.21502486889291    5.30411588896217   14.06471640490583
H         5.20899239139334    5.18840756640286   15.82455573716387
C         1.51662498920404    7.59676838873651   12.24582129439463
H         0.66536467543366    6.97550979184631   12.00933516409773
H         3.55117682533055   10.06865926338901   15.46155551681318

