133
CSD_code = GOFNUL | q = 0 | S = 0 | Stoichiometry = C59H66N2P5Rh | MND = 4
Rh        1.18219297942619   14.87533439213069   15.26175003655857
P         1.36689508808699   16.91658974243125   16.28322331789823
P        -0.50448010205106   16.19465362896284   14.43213909775251
P         0.87555974425187   17.91294900613072   14.39017673685922
P        -1.96070742788585   16.59717191015735   16.10085775762922
P        -0.45403919580404   17.45154628582671   17.45240089917765
N         0.66349798860173   13.09119723642976   14.40449227989248
N         2.92811839387452   14.07598780866503   15.93944807145855
C        -0.44222304992841   13.05158601263229   13.52099954732900
C        -1.74632474955124   12.87390810471086   14.01733470852243
C        -2.78020242665143   12.68973700451911   13.11055854376522
H        -3.78198364831623   12.50832156778464   13.46766709714267
C        -2.55134286801305   12.73483366492195   11.74866387610101
H        -3.37009642872488   12.59349677613938   11.05808073708276
C        -1.27568924617404   12.96123954747750   11.26876920928806
H        -1.11696795516994   13.01083937236993   10.20311014337791
C        -0.20265759572418   13.08596580199871   12.13646564836713
C        -1.99640340311271   12.88755117316292   15.50957127681824
H        -1.32935618770139   13.65702491055607   15.92231692799339
C        -1.64166790920880   11.55085558958850   16.16947512692573
H        -0.57300928260880   11.36426235149276   16.13236483926576
H        -2.16032577021202   10.73197796426623   15.67318026774338
H        -1.94870774868955   11.56691703994950   17.21350145016002
C        -3.42645999751228   13.26003824624846   15.89689108748248
H        -3.75617888781245   14.16587552603868   15.39326554187129
H        -3.47072732059000   13.44402488242475   16.96881793474051
H        -4.12112699171386   12.45527949742605   15.66489179646280
C         1.20928390321427   13.25636991579250   11.61715407821103
H         1.89889377019431   12.81701816216097   12.34438278320973
C         1.44629780279453   12.56141269215536   10.27659169205715
H         2.51263894551734   12.53795965591901   10.05928755520999
H         0.95303593206202   13.09033313361737    9.46436400713525
H         1.07772402248046   11.53773955996061   10.29973384462835
C         1.54562146734090   14.74370463639962   11.51387115514700
H         2.55747913124251   14.87542982558575   11.13790807752727
H         1.47718009651252   15.20685593084101   12.50471674131446
H         0.85149182999776   15.24230299122131   10.84129578183311
C         0.80300353362998   10.67743003045577   13.92256948648489
H        -0.27301055194698   10.69019117657353   13.77662418760354
H         1.06960567927830    9.81806756937146   14.53350087247472
H         1.27020028719694   10.55185655749414   12.94566990870018
C         1.31075636279722   11.95118931242998   14.56729033040937
C         2.51309482193053   11.81470957902897   15.25361450558646
H         2.93051126048508   10.81896110236567   15.28368610173387
C         3.30527200895045   12.82079773044880   15.80200553762742
C         4.69076525858970   12.36481579136853   16.20854235843474
H         5.20853180559495   13.09780709105339   16.81924980724996
H         5.28137652918674   12.18461771736548   15.31059223666440
H         4.62879074636008   11.42568094982216   16.75475546288509
C         3.91768354016243   14.99784692799278   16.36315630622005
C         4.08196192365286   15.30384577008715   17.72926288657475
C         5.15342518500148   16.10055951941585   18.10511682701517
H         5.32067867483423   16.32172481573560   19.14667966042747
C         6.03054720196166   16.61418839236601   17.16887206955903
H         6.86230773649357   17.22511944804436   17.48797376635715
C         5.83452189602419   16.35142158024349   15.82842960212942
H         6.51462104016915   16.77008919957541   15.10142235826128
C         4.79514812070098   15.53590256479484   15.40691443733319
C         3.08861420552949   14.79387354541508   18.75094689094001
H         2.09447616758249   14.96552780474126   18.31701956084643
C         3.15230568707643   15.52725225145380   20.09053762115727
H         3.18931251511183   16.60373533922469   19.95525182771673
H         4.02553504889539   15.21485850165076   20.66034137764402
H         2.26550148158795   15.28506947698791   20.67386898494230
C         3.22165921650005   13.29276804777131   19.02956457269182
H         2.92568029829146   12.70130076230658   18.17048169660316
H         2.57517050708363   13.02418834761061   19.86297575539981
H         4.24727366150367   13.04485167437397   19.29673652105933
C         4.62766007441331   15.24319098047728   13.93143740683001
H         3.79344893856243   14.54306953385378   13.80249198911083
C         4.27977597430102   16.52142035332223   13.16664489898970
H         3.30000950771378   16.88407683423434   13.47996857329918
H         4.24278882552103   16.32386115354234   12.09772063616755
H         5.01882672386040   17.29973684620897   13.34453812936837
C         5.88762342578983   14.60456614717451   13.34336511462030
H         5.69949933633082   14.27775117627085   12.32244690404890
H         6.19554985967914   13.74211869495245   13.92921964863033
H         6.71194901867204   15.31371237767629   13.32622439710736
C         2.55043853649365   18.06774967909531   17.05529246722893
C         2.44542586430761   18.41820847064773   18.39655254668666
H         1.63812057318696   18.01114180687605   18.99325802669431
C         3.35158881048919   19.29802973209809   18.95910659282867
H         3.26148460168455   19.56906767537932   20.00152736472435
C         4.37091150925271   19.83203729726289   18.18864168560511
H         5.07833249197181   20.51826369252311   18.63022140727683
C         4.47554445059403   19.49162121982819   16.84992207608213
H         5.26301228663379   19.91511882903496   16.24410977136102
C         3.57202132572472   18.61263084489832   16.28555842779407
H         3.64326355362428   18.35018494965573   15.23985334655376
C        -1.46746297841016   16.33387095837116   12.89400421691272
C        -2.73167916187608   15.76338618066494   12.79882055610274
H        -3.15513409471023   15.27404585047130   13.66370125002345
C        -3.44108430964133   15.82600668757312   11.61380296267744
H        -4.42533605970791   15.38525935093290   11.55488139893665
C        -2.89279470614040   16.45463217614001   10.50874139471536
H        -3.44638368347009   16.50375941361065    9.58277350411015
C        -1.63291208304337   17.02452847222404   10.59483064651726
H        -1.20269643027627   17.52023158877888    9.73627243964539
C        -0.92313493097565   16.96365881665306   11.77937696111801
H         0.06116009801558   17.41215062994611   11.84728423976227
C        -0.11861593128946   19.40360614575907   14.78481536454367
C         0.14712699019143   20.18467556574803   15.90556664077958
H         0.91956225257906   19.88756584017613   16.60172109510039
C        -0.56188916338290   21.35078276529090   16.12499705445765
H        -0.35500284047628   21.94236800194138   17.00495183542834
C        -1.52338083614301   21.76380587563585   15.21909228272969
H        -2.07364932782211   22.67701675686556   15.39023480262009
C        -1.77070412609409   21.00710405056400   14.08612242841069
H        -2.51131378740573   21.33033891861366   13.36938994564306
C        -1.07258516537091   19.83581596257465   13.86662857115016
H        -1.27203064265859   19.24696538644429   12.98173785028213
C        -2.93878863990316   18.12439783164407   15.81735651009688
C        -3.70248406865771   18.29173243277103   14.66480172847391
H        -3.61398502907253   17.59037176750928   13.85029416815821
C        -4.57212591956403   19.35889764933847   14.54326623402927
H        -5.14774921342522   19.47315270898471   13.63578805015702
C        -4.71388897595640   20.26904166621253   15.57594842766445
H        -5.39635882037160   21.10056736066382   15.48067868602867
C        -3.98038053746178   20.09724295293391   16.73724823120643
H        -4.09092328630552   20.79285581171852   17.55649017047610
C        -3.11190747664054   19.03108629955170   16.86093892842528
H        -2.56007974309852   18.90055372066903   17.78307266664724
C        -0.46367319011032   16.08256475672287   18.67598833360047
C        -0.71754322815973   16.41864076540185   20.00218613850473
H        -0.85828888544473   17.45847282349130   20.26935700613262
C        -0.79402998477231   15.43569794061395   20.97256959516063
H        -0.99111661785959   15.70714444899629   21.99973587511055
C        -0.62086535284699   14.10623799169027   20.62535086251951
H        -0.68492496207529   13.33782569880973   21.38217294022609
C        -0.36172796297848   13.76428818681727   19.30778108547778
H        -0.21588738859190   12.73031326059671   19.03238721953565
C        -0.28080190331457   14.74574128406326   18.33794313740013
H        -0.04055833676010   14.47139882511815   17.30552195962740

