113
CSD_code = GOFPAT | q = 0 | S = 0 | Stoichiometry = C39H66N2P5Rh | MND = 5
Rh       11.01547256508004    3.00318083164664    4.43776049982402
P        12.12019458662303    4.19824925736539    6.08800014779166
P        14.16165789358243    3.91857632468495    5.30874064372881
P        13.20814421188468    2.40525673771757    4.02212098509889
P        13.30738665261289    0.51500132958086    5.14375683398292
P        11.19196948754386    0.98049792939601    5.59681364790841
N         9.15440565753023    3.53391873566272    5.16163821506907
N        10.71920705838678    4.27423712635997    2.65340088154188
C         8.61828893243699    2.72356572063222    6.19408699801723
C         8.04642920731689    1.48742652050292    5.82793435292258
C         7.50787771982106    0.66884379280882    6.80857632979990
H         7.06010956219732   -0.27298645146627    6.53294628546522
C         7.51488508518554    1.04917148822888    8.13638730117554
H         7.08834794266851    0.40357917377267    8.89008991122463
C         8.05771123120876    2.26767374008388    8.49080737992879
H         8.04396993013322    2.56700404515358    9.52795903305674
C         8.61284151744940    3.11989581923320    7.54408480387935
C         7.92881389807849    1.09642361772760    4.37146089087332
H         8.69080594100801    1.65309074291002    3.80907038386994
C         6.55141023436769    1.50794362673161    3.84323135390818
H         6.42372801115199    2.58540021083092    3.89787616156850
H         5.76546661960704    1.03700926338665    4.43111254807547
H         6.43594626313992    1.20170090745242    2.80531804243327
C         8.16016480167108   -0.39324622176679    4.12464239781032
H         9.08525995885596   -0.71586297452037    4.59858622608465
H         8.23401241249904   -0.58165014863837    3.05515193324214
H         7.34002766816632   -0.99405061514647    4.51003729361793
C         9.16929877773470    4.44475252676280    8.01439063481570
H         9.57562655277894    4.97383413354108    7.14738521767678
C         8.08100587509454    5.30864356554936    8.66184409407762
H         7.20600042963485    5.40049751588564    8.02547217121088
H         8.46961886632577    6.30550390979567    8.86081502783319
H         7.76296870571155    4.87578777967064    9.60754978358486
C        10.30064884436247    4.24881350799947    9.02586792161962
H        11.10353484572771    3.66142882673596    8.59093593397524
H         9.94358074348213    3.74183933586158    9.91887487276411
H        10.70200130050050    5.21652695876721    9.32021666845688
C         7.10917572132472    4.89576422700281    5.31006568576414
H         6.77700984997743    4.15128555984176    6.02771039292884
H         6.34317706049783    5.01165679296403    4.54513785966965
H         7.21622047457960    5.85536322204889    5.81431449862536
C         8.43008688374116    4.52074662911189    4.67039979408663
C         8.72072928328431    5.26967177437371    3.53199582959715
H         7.99563170586766    6.03913197647589    3.30381485552931
C         9.69200052539531    5.08360907333572    2.54477421275272
C         9.42950802101992    5.86285195369416    1.27231131147750
H        10.04637357167920    5.51215904415221    0.44912740713292
H         9.63113103686604    6.91977223026816    1.44115654783206
H         8.38254850284377    5.76699289986149    0.98912273076508
C        11.55746563172014    4.04551912080771    1.54159414823747
C        11.43396482133111    2.82556522971306    0.84376796673407
C        12.22566368191903    2.59804740129440   -0.27061211268747
H        12.11734620031461    1.68288586976591   -0.83073540963965
C        13.15387341667196    3.53162052306663   -0.69135658828495
H        13.76544927640592    3.33613248446290   -1.55993844920722
C        13.28743574819727    4.71627577403538    0.00285028324554
H        14.01372804073460    5.44293110918903   -0.32889922776258
C        12.49145586234039    5.00188996042332    1.10359602339055
C        10.42280401589314    1.79456620982728    1.29431345393881
H        10.43876190332282    1.78300461241092    2.40551129226853
C         9.01461748070722    2.18843999114873    0.83734181219274
H         8.68652210396779    3.10627870792037    1.31671037550412
H         8.30598903061482    1.40123930958794    1.08646126508809
H         9.00121077083597    2.33608650337154   -0.24175670041062
C        10.72908837475102    0.37848773440034    0.80868938351680
H        11.77785857112742    0.12653857598260    0.95107310680584
H        10.48710673354160    0.26997255950936   -0.24706825429012
H        10.12571670912796   -0.33848406189972    1.36274887172706
C        12.67304324278738    6.33220929936056    1.79834872499321
H        11.88552475889936    6.44124143968840    2.54890500997112
C        14.02966092310917    6.37507683808782    2.50498367690789
H        14.11850727564762    5.55038274145075    3.21201788549053
H        14.14495754839307    7.31016225866070    3.04963028232206
H        14.84113386405092    6.29472548433595    1.78477050544283
C        12.56176057063909    7.50890778052768    0.82409692223079
H        11.66213794634665    7.43529362954362    0.21803845782189
H        13.41823302426138    7.54509457789668    0.15538600064853
H        12.52971393344012    8.44504626889067    1.37843594086677
C        11.89152381003575    5.97180570138826    5.57279091287997
H        12.16083187695270    6.08260608234153    4.52265859870939
H        10.83203281830655    6.22038783326382    5.67961859404674
C        12.74444219380240    6.88853544835171    6.43980649257248
H        12.61353257149543    7.92844367078121    6.14485874634660
H        13.79805993374377    6.62795759508213    6.33463049945916
H        12.47118986330736    6.78815845684593    7.48874355389298
C        16.21535972501081    2.41798050745434    6.59463238997200
H        16.60389999701436    2.03371177124782    7.53615640743405
H        16.89822197425434    3.18132464434888    6.22533916330701
H        16.18577701239920    1.59932949053099    5.87889178734718
C        14.34684042413622    2.27924434709468    2.55936918698264
H        13.91728374630991    1.55223582270350    1.86476524461897
H        14.33680191885825    3.25262941495597    2.06370956866765
C        15.76250674845690    1.89390117760043    2.95348854257123
H        16.39405029022967    1.81700264691258    2.06987197642969
H        15.77170420040633    0.93496675902320    3.47115033981621
H        16.18340715310245    2.64894463316313    3.61600535597498
C        12.93596644290272   -0.64863652261156    3.72368922137188
H        12.11082393603504   -0.24313928098888    3.13230647474727
H        13.82390761970476   -0.73033468296829    3.08973900529282
C        12.55796583551890   -2.01814071400127    4.27109182075345
H        12.31839117744651   -2.70235436021607    3.45882591395613
H        11.68791734162054   -1.93177215257328    4.92131243148406
H        13.37669149210548   -2.44105975741725    4.85086827335115
C        11.33449522385759    0.96675901587777    7.45200669901130
H        12.10798566623029    1.66864763460894    7.77771109547379
H        10.38034242474856    1.30205571467271    7.85855300384287
C        11.64411898210527   -0.43974027092134    7.94709355206307
H        11.74858860258802   -0.44992778381628    9.03063423611831
H        12.57268167725325   -0.80544539866166    7.50619685507529
H        10.84182449944371   -1.12181581627960    7.67172753548807
C        14.82204911858542    2.98996129244394    6.79886568669148
H        14.83162677546818    3.73328286013793    7.60378947211640
H        14.12971283682550    2.19257231213358    7.08392178099729

