41
CSD_code = GOFROL | q = 0 | S = 0 | Stoichiometry = C15H15Cl2N7OZn | MND = 4
C         3.13247836997318    5.64420852360501   13.83144723460785
C         2.72282333134579    4.38831185713110   13.40444061418902
H         1.67506725637937    4.18591427446316   13.25043088636522
C         3.68107671834957    3.41977564012996   13.16111846206935
H         3.39123405066234    2.43935442756755   12.81423519560635
C         5.01616450595790    3.73246760880788   13.36652985336277
H         5.79440146279717    3.00796702989970   13.18965195868277
C         5.33704453517957    5.00683341226150   13.79752917041550
H         6.36079007575976    5.30620858782862   13.97522232247776
C         2.14851381389797    6.74112890199235   14.14464570955098
H         1.17320887249549    6.49912885090235   13.70314984820496
H         2.04382797049471    6.81601950346309   15.23193913913815
C         2.17619125724888    9.23588683281298   14.27435593832483
H         2.07910590126638    9.05491256971736   15.34962860575024
H         1.20260307985736    9.53843432959080   13.86822213693536
C         3.17752225449828   10.34116380925468   14.05985417811876
C         2.78588705748498   11.64275871862301   13.77783233159712
H         1.73968722314665   11.87985290500113   13.66961053372206
C         3.75895260715616   12.61354995252683   13.61625229470083
H         3.48246198817971   13.63025859028821   13.38164239914785
C         5.09115663101653   12.25599219142074   13.75614773912105
H         5.88076953067070   12.97992596962105   13.63764077487152
C         5.39415148707762   10.93751491097680   14.04276286671181
H         6.41513601961292   10.60233452234816   14.16374561068543
C         2.81990591430308    8.08359332083018   12.29240915991232
C         3.82052166991801    8.23656395377663    9.98719027827531
C         5.15955315793556    7.14149320887102    8.45618413381348
H         5.73297455378163    6.66185442221815    9.25223791339922
H         5.81347650459562    7.42719600884736    7.63579904644379
H         4.37953434986498    6.46019698122714    8.10990150468028
Cl        5.82297359404595    8.02020424473635   11.94765693423857
Cl        6.63008429829458    7.88365165984582   15.67540351304547
N         4.41507180692057    5.93424235626292   14.02366148687844
N         4.45775424076544   10.00868004552418   14.19117371688631
N         2.64959268632898    8.01209211759868   13.65398111134104
N         2.77860109985799    9.26512744949055   11.68026802103970
N         2.81252898557070    6.97374492325508   11.55683542117143
N         3.26457216333876    9.34743667791684   10.48956778574199
N         3.33680191704683    7.05396744286761   10.37791221695803
Zn        5.11620567659200    7.96750200590298   14.08674754598468
O         4.59209138034921    8.35094926059751    8.93613440582924

