31
CSD_code = GOFTEC | q = 0 | S = 0 | Stoichiometry = C14H11Cl2N3Pt | MND = 4
Pt        1.33302372107871    4.45896836789173    1.95922442916217
Cl        0.68784026580314    2.32259519405265    2.05792041890133
Cl        3.46794924053957    3.83300735765603    2.24521143840723
N        -0.57047467006401    5.16323717879091    1.66960925470441
N         0.11363003733602    7.50878539940124    1.50931922448296
N         2.02725244281570    6.28394183417184    1.93256777793739
H         3.02660590817213    6.30254385838591    2.14878875856402
C        -1.63531409699874    4.36321094836165    1.57982077232963
H        -1.44075773232116    3.31324309346896    1.75715565865583
C        -2.91431213294666    4.81112688628780    1.26853154842165
H        -3.71491004570626    4.09152672223718    1.21670204661353
C        -3.14846954763476    6.14898882455924    1.01880205543817
H        -4.12673351230315    6.52155287585774    0.75911962831355
C        -2.05579267424600    7.00528514310430    1.11489514244717
C        -1.87023654385603    8.40639288583332    0.92945053291473
H        -2.62563646475625    9.11147664022322    0.64821835959669
C        -0.56337392522656    8.66814857887494    1.16617248584088
H        -0.03966043949532    9.60051450694510    1.09777267936717
C        -0.79079613948658    6.46484481097147    1.45694857722392
C         1.46111915885957    7.43282368161302    1.80825058915270
C         2.22144869526009    8.68263482372068    1.99292866991350
C         3.45342030970738    8.82650669310553    1.35608372454183
H         3.80297009878744    8.05211839259219    0.68929057771538
C         4.21068725488408    9.96485077381590    1.55818377207707
H         5.15783782347496   10.07335915202511    1.05280031797855
C         3.75813451011996   10.95927647392573    2.41016003218817
H         4.35343187844122   11.84475305071641    2.57113065687047
C         2.54510855114657   10.81162670634654    3.06312235962802
H         2.19781970788071   11.57714981315580    3.74012753272237
C         1.77548411454865    9.68170978963020    2.85733695140576
H         0.84260420619564    9.55899954224198    3.38805402647138

