41
CSD_code = GOFTUQ | q = -1 | S = 0 | Stoichiometry = C19H15Cl4OPRh(1-) | MND = 6
Rh        3.38133886884133    0.68306104935121   10.84725665542218
P         1.42632079296614   -0.37337594969643   10.36157588769724
Cl        4.57461055471440   -0.85997211530834    9.54905845683532
Cl        3.49868185788159   -0.69136532366259   12.69768019267945
Cl        1.88083609785925    2.19849330940332   11.87685901571265
Cl        5.32695687978302    1.91869745466027   11.36746002954513
O         3.73150573753530    2.71129616616100    8.68728870342249
C         3.53720381337927    1.90534292671009    9.47175527133713
C         0.64308144391013    0.58389970485682    9.03003962410868
C        -0.44546953047908    1.41830415874953    9.24761145170865
C        -0.91909018365027    2.21321745045263    8.21763443792357
C        -0.30915745734334    2.18463628277890    6.97515416323855
C         0.79308913878678    1.37009041615776    6.76166823784956
C         1.27548490298072    0.58061260648404    7.78707489625035
C         0.07751148806375   -0.63257048098848   11.56166155412474
C         0.21129877742868   -0.39159215771302   12.92084413130300
C        -0.85351925498541   -0.64035970418361   13.77079557142065
C        -2.04792382712970   -1.13066994880191   13.27316069916890
C        -2.17988314361014   -1.38212302175911   11.91606958206661
C        -1.12135863879159   -1.13913842454425   11.06285142964608
C         1.51797326003674   -2.07392640073420    9.70646031272688
C         2.22227828297867   -2.99458335774822   10.47721157413406
C         2.30428269230935   -4.31419526419272   10.07606846098528
C         1.67905457648566   -4.72682204298953    8.91052550540655
C         0.96895796848625   -3.81517806238452    8.14853761673854
C         0.88494814324592   -2.49096203898941    8.54215194380995
H        -0.90392950679328    1.45679047895045   10.22497547022727
H        -1.76309352957166    2.86611950643330    8.39008049689215
H        -0.68125857745265    2.80937851502273    6.17520937173189
H         1.28304412802434    1.36246098926401    5.79837681156180
H         2.15438597580421   -0.03730353939946    7.64486259157806
H         1.14538549991711   -0.01630548922345   13.30881451264104
H        -0.74631701059590   -0.44894900382490   14.82851411420486
H        -2.87796120525274   -1.32193559138795   13.93947908109018
H        -3.10999643821861   -1.77007272061714   11.52339914198502
H        -1.22111748540826   -1.33893624762361   10.00396152053312
H         2.71623476525943   -2.65821828978639   11.37953720989258
H         2.86241073421752   -5.02243063946013   10.67103001944756
H         1.74680348492545   -5.75837604091626    8.59309166940048
H         0.47890241887518   -4.13439182577227    7.23849877308950
H         0.33199350458287   -1.78634733373098    7.93581381045886

