115
CSD_code = GOFYUW | q = 0 | S = 0 | Stoichiometry = C38H70Cl2NOP2Re | MND = 7
Re        8.31090239205066   13.24014321154377   -0.06332537782231
P         7.66783014877558   12.69345444596696    2.39967748523940
P         9.80621087806173   13.85903428501820   -2.10389629896441
Cl       10.36354231223328   13.66010405416069    1.02171329132813
Cl        7.78470316461493   15.43088725161352    0.25367383488134
N         8.50711756179827   11.54515133067463   -0.40851384974384
O         8.50146343888467   10.39523014645651   -0.70842929190182
C         5.89014344934542   13.01251690122846   -0.49405816350585
H         5.42374827118972   13.78480307545103    0.10362920245288
H         5.58950852019180   11.99379968986564   -0.29206301701801
C         6.46200679985233   13.32314514163308   -1.69841447807352
H         6.45123259279073   14.34295972177692   -2.06045788905466
H         6.60813313855760   12.54710269418128   -2.43692805400565
C         7.37506338174954   14.14386336726494    3.53374972971546
H         7.22611563803703   13.70356166146001    4.53003690271910
C         6.12070953100984   14.93323622608213    3.15152811470632
H         6.27541196679176   15.40311309435688    2.17987215349642
H         5.24940750308720   14.27927046338994    3.07730983305564
C         5.85084659793242   16.02230141500047    4.18656826700291
H         5.66833351780538   15.56406118634654    5.16340061019598
H         4.95341950769753   16.57864821225896    3.90673975483371
C         7.04283560612135   16.96811887345523    4.28244146608008
H         7.18657598178507   17.46150920386619    3.31914480299171
H         6.85161700414529   17.73947036464346    5.03186102989254
C         8.30380831937173   16.18886641385862    4.63943603566477
H         8.18525213636902   15.73697270423285    5.62882509616584
H         9.16039070155299   16.86461527579866    4.68188954285941
C         8.56918070524567   15.09583165760302    3.60815075006060
H         9.48017473655992   14.55921212530206    3.87816769256367
H         8.73085720787052   15.55576620135803    2.63309109876956
C         6.08691525721940   11.70769133049598    2.60612446654025
H         5.37505227301322   12.26267047208329    1.98194731827524
C         5.45241553835365   11.58946976400183    3.99368774728199
H         6.05943135684908   10.96230008295976    4.64419723317416
H         5.34375689341922   12.56348106456406    4.47031981882064
C         4.06923354453965   10.95082141341550    3.85281952086118
H         3.60276636377343   10.87109525969855    4.83726510162713
H         3.43367455398738   11.59014207364550    3.23482838326415
C         4.17037860217838    9.56886384459917    3.21416727706128
H         4.74440486640569    8.90968685801042    3.86962979965752
H         3.17335484615150    9.13872163690834    3.10017546871367
C         4.86114735438293    9.65667649000213    1.85660168946623
H         4.24449363933910   10.24622882641914    1.17360296529785
H         4.97153025221251    8.65884708076686    1.42801100279193
C         6.23314186308301   10.30947390202872    2.00559926741451
H         6.73464046307648   10.35966635393805    1.03783640515291
H         6.84275880182262    9.69048245372870    2.66510552859368
C         9.05164681649908   11.79536848785055    3.28774173417369
H         9.81589300863410   12.57611094626465    3.38678593866787
C         8.73412073689798   11.26296477612394    4.68359288924976
H         8.24267243571793   12.01854019644404    5.29861279586599
H         8.07859063696698   10.39409368896501    4.60947137704207
C        10.03192444404480   10.82696810268221    5.36334315085284
H        10.70060380219665   11.68559002558031    5.45551103526234
H         9.81402212463458   10.46233993467675    6.37010341991210
C        10.71736956807867    9.73435364268947    4.54927488497968
H        10.07523147704512    8.85061905279047    4.51729068953645
H        11.65547420173199    9.44691561181263    5.02827653359542
C        10.98245536558751   10.21922422368793    3.12776068581518
H        11.68510509720830   11.05443404693600    3.15000123375120
H        11.43283110382020    9.41874999115935    2.53821254362777
C         9.68809195597733   10.67778123234984    2.46030772811673
H         9.00988261286223    9.83044070919510    2.36080006793668
H         9.91938656204242   11.04724438451967    1.46202086289866
C        10.17172125299443   15.66919666180393   -2.36000245739663
H        10.89101546120055   15.70259224039827   -3.19072480661081
C         8.92294296374133   16.46005933514408   -2.75729784406672
H         8.42815993228522   16.00991353604353   -3.62033025129028
H         8.21891164045365   16.45971801335032   -1.92473517842564
C         9.29755638336363   17.90353445462003   -3.08312648143104
H         9.98603872730666   17.92178703854443   -3.93345029472072
H         8.40117844562631   18.45889868369121   -3.36826831615958
C         9.95920023702530   18.56257563165568   -1.87812424488205
H        10.23485945071480   19.59227548103344   -2.11658262038473
H         9.24958307840358   18.58645575608587   -1.04875996532732
C        11.19312713383352   17.77080167829844   -1.45945928662113
H        11.65076819588528   18.23005589048215   -0.58101410077481
H        11.92972255428444   17.78922623544955   -2.26824152458237
C        10.82094112077622   16.32553001323333   -1.14118003908700
H        11.71652081957561   15.78180005565949   -0.83590235439852
H        10.12251954614455   16.31244561646425   -0.30427393434600
C         9.11785620281213   13.35598417824966   -3.77330218586319
H         8.08957657518211   13.73733591690607   -3.73382097753938
C         9.74715465184219   13.92549087362219   -5.04673713434582
H         9.83906364985692   15.01037995535559   -4.99924123506162
H        10.74074902990866   13.51031170576238   -5.20598433811696
C         8.86683010246960   13.55552922386723   -6.24220593911333
H         7.87609151535476   13.99960149306189   -6.11676773718154
H         9.30161675628842   13.96660749605834   -7.15600158317774
C         8.73008792035602   12.04128597643498   -6.36928104387762
H         8.08139239886858   11.79648837647634   -7.21265327496028
H         9.71224941296097   11.60572650245407   -6.56730645584953
C         8.16435674837259   11.44631872631783   -5.08331802982310
H         8.11323868225528   10.35903618408928   -5.16507272914862
H         7.14799204008486   11.81695005112543   -4.92889369326322
C         9.04033955126444   11.83405185853031   -3.89469862887448
H         8.64557402834877   11.39709281305790   -2.97613825284860
H        10.04047583271278   11.42892350097728   -4.05357135895898
C        11.53041916686239   13.14719936477677   -1.93001995156645
H        11.95092973504737   13.74168101421195   -1.10952817043558
C        11.54826420868287   11.69324449235728   -1.45624858810287
H        10.89381928900490   11.58137726325393   -0.59272142680537
H        11.19559901197741   11.02255009822243   -2.23954320452994
C        12.96777925484096   11.30286947217115   -1.05201033975038
H        13.28211972290594   11.92718413333156   -0.21346326313944
H        12.97893683745650   10.26386430780889   -0.71816900917703
C        13.93311255125944   11.48663337835436   -2.21829419579596
H        13.65942449979518   10.80393015887428   -3.02660817371130
H        14.95001510392579   11.24138397380619   -1.90545934447321
C        13.87905257433826   12.92233602693875   -2.73031040351756
H        14.54748570797241   13.03940830990160   -3.58672965071991
H        14.21846563857636   13.60144781642183   -1.94517092799058
C        12.45258153616239   13.28907918016548   -3.13919411308593
H        12.13723542109442   12.60598051033820   -3.92916166266850
H        12.44220656652161   14.30634098799178   -3.53384611573459

