98
CSD_code = GOFZAD | q = 1 | S = 0 | Stoichiometry = C39H46BMoN8OS2(1+) | MND = 7
Mo        5.47373110914910    3.57340279848236   23.98654906625307
S         7.13098139888488    0.60054981524173   22.66887004135324
S         8.58499971372267    4.10032059675903   22.10712368384349
N         3.86151346760483    3.20148333850533   22.59732832270809
C         6.73395153287435    2.21755694104544   23.05661216681632
C         7.19795831399046    3.45293490261238   22.86271388804685
C         5.24189931461835    1.82273294511002   24.78494012292690
O         5.17331128949042    0.74138727757278   25.16618719236502
C         2.84439319503918    4.06460934759560   22.44082317728114
H         2.84843562190993    4.94399824945908   23.07620772064555
C         1.81526917349379    3.90470420377500   21.54817648201817
H         1.04669284147873    4.65708676571890   21.51225407916202
C         1.77467287683206    2.77781165726480   20.69808683397602
C         2.84742118347221    1.87405902661509   20.87062698211670
H         2.91533224678626    0.97339851129615   20.28643440812510
C         3.82200652483685    2.11773006238201   21.80238390414010
H         4.61816336827753    1.39508782555086   21.93360687997217
C         0.80581546765118    1.40834757588191   18.95188117175451
H         1.71737805296384    1.37236621306745   18.35090743804210
H        -0.04344490187220    1.44151823573266   18.27575456034116
H         0.73629286378880    0.49203278902069   19.54348906098105
C        -0.29953554952118    3.51571603695930   19.68935473937977
H        -0.83620585846737    3.60620727968628   20.63694520643278
H        -1.00057821676865    3.16900813391912   18.93587836946345
H         0.05978733508046    4.50394991818928   19.39111487455157
C         8.35213776652706    2.50470669304648   25.85854599820114
H         7.57393167338175    1.74274257192152   25.88366618868473
H         9.11124773562012    2.26141522579835   26.59739129728323
H         8.81801216107741    2.48931937846469   24.87108700232488
C         7.79119880572495    3.84929611836311   26.14792304126973
C         8.30987968046666    4.81096945390067   27.01772880987358
H         9.17998147766914    4.71987114862397   27.63487025480840
C         7.46221683190156    5.90042135965648   26.92576821649773
C         7.54981434535969    7.19978169119907   27.63648618161410
H         7.62031444537635    8.02331373276439   26.92830478857595
H         8.43158130000389    7.20613081477040   28.27042247109097
H         6.67091435170998    7.36149065302187   28.25744817076736
C         2.34471545648512    2.34407114440566   25.38255268223605
H         2.65387775466297    2.04296366619329   24.38543420834696
H         1.25885596653874    2.31793804532044   25.44467438004166
H         2.73479369569273    1.61593792672245   26.09385363893202
C         2.82609857451331    3.70496838132845   25.73936656888468
C         2.20220879581922    4.57549409855333   26.62939967040626
H         1.28974886830140    4.40735751050439   27.16306940194212
C         3.01082180013738    5.69950470206335   26.69097185432375
C         2.81610841167534    6.92622753859536   27.50176783452074
H         3.62694876773164    7.04446414032859   28.21796083850703
H         1.87811381710119    6.85627979225269   28.04473090215163
H         2.79333618808172    7.81114473730208   26.86910559195405
C         5.40087843834672    5.23720399447621   20.77179035868979
H         5.71005542281966    4.21204785787599   20.97848301678745
H         6.09715876499205    5.67755274140741   20.05985841305202
H         4.41740991728012    5.21801728454737   20.30045721607177
C         5.36255090232140    6.06437312378640   22.01032330294145
C         5.32244148810637    7.45977511171999   22.06259601335091
H         5.31033137056931    8.13615773584364   21.23293307354900
C         5.30423543814596    7.78474637278941   23.40661522233713
C         5.26503322437393    9.12960259542790   24.03184606449122
H         4.36753685194122    9.25072540541277   24.63553117224155
H         5.27030526988499    9.88986458638201   23.25615555082490
H         6.12831183797678    9.28012984950181   24.67715002427578
C         8.77670837177002    0.79475309672449   21.83373587406791
H         8.63069529563170    1.50132960348098   21.01781103125288
H         9.45331563829147    1.21240682182685   22.57798324552057
C         9.23077918977411   -0.54124973871047   21.35278428510553
C         8.92148603656677   -0.96924770614998   20.06729071024772
H         8.36531036185230   -0.31869770988110   19.40730680998740
C         9.32785682986600   -2.21663118265969   19.62967907000014
H         9.08801830273362   -2.53832028520640   18.62745038105865
C        10.03991012810168   -3.05099754150287   20.47487296620256
H        10.35610028667168   -4.02458030590156   20.13308422775979
C        10.34470675775671   -2.63402102289036   21.75976166684680
H        10.89843603554100   -3.28192453148273   22.42206653288622
C         9.94011981131201   -1.38651175572033   22.19809014763447
H        10.17659992651838   -1.06287527754701   23.20155272934874
C         8.57640873991888    5.85633031984409   22.69332253734018
H         8.14991052701238    6.46365951427387   21.89604835279999
H         7.93816769132120    5.87474402433955   23.57503307212343
C         9.97371499205369    6.26623762897421   23.01689908272902
C        10.77665724581450    6.86148851134842   22.05148418596495
H        10.37802393535548    7.04591580865748   21.06414026429088
C        12.07912545034247    7.21886183691209   22.34975242477800
H        12.69401366738996    7.68365330180961   21.59422051495788
C        12.59287494298122    6.97954254129057   23.61316476386216
H        13.60928961064472    7.25821267707090   23.84511298776918
C        11.80006336171337    6.38038927241632   24.57771533641997
H        12.19730874102469    6.19043436488003   25.56343082930431
C        10.49779963645269    6.02223486767060   24.28100281829113
H         9.88029613083519    5.55291090877783   25.03443015313825
B         5.27042707064193    6.39210239270710   25.60685298341912
H         5.19199712464305    7.40540003833703   26.19660699700825
N         0.79429900561768    2.57806632339538   19.80100301531649
N         6.69742610607877    4.34103926463644   25.56259857631501
N         6.50208411531339    5.58698749896288   26.03408373350224
N         3.94654096519387    4.28029965584484   25.27715931659792
N         4.04797348692471    5.49299574005496   25.86465026260807
N         5.37372466967360    5.58153829732048   23.25328846361047
N         5.33517984701277    6.62871511426072   24.09620985531476

