92
CSD_code = GOGBIO | q = 0 | S = 0 | Stoichiometry = C48H39ClNiOP2 | MND = 4
Ni        4.97001665267398    1.11050782331372    2.99647571265586
P         4.40203332570149    0.20218113689198    4.87052596266243
P         5.26575981652399    1.89779859112763    1.00730858306614
Cl        6.85451218248753    0.11885943732839    3.00182494196633
C         3.41991487897918    2.14831927910142    3.09844676854885
C         3.42252160823275    3.40083914891483    3.67188094787540
H         4.33478654928547    3.82964919981143    4.07305187555342
C         2.24651042004915    4.15236863278500    3.74568440000505
H         2.30332849948404    5.13728601836204    4.18644037574476
C         1.04836000128710    3.69228485458230    3.23609549597762
C        -0.16927184471452    1.81726568822031    2.11693908837298
H        -1.08867950835191    2.37903856205359    2.14958912282820
C        -0.15770864129794    0.56622505928938    1.56386451589216
H        -1.07071947204178    0.14383242231700    1.17008791931884
C         1.02654421047377   -0.17974649790058    1.50126028436504
H         1.01762463303125   -1.16540686644289    1.05894739827784
C         2.17678348753227    0.35097663689909    2.00678455705259
H         3.11625785241802   -0.20616602048478    1.98068063454490
C         2.20128898680957    1.63642947990804    2.58413344209419
C         1.00505553333307    2.39884867399258    2.63418516191734
C        -0.14869326174102    4.55651856537481    3.29211820833064
C        -0.24003699745331    5.49336795634143    4.48073841590011
H        -1.27485916700975    5.80260114104256    4.60753955442076
H         0.35512701996049    6.38406365549619    4.28509456932374
H         0.12350415654344    5.01963118754375    5.38825852507248
C         4.96007766684038   -1.51896232978496    5.09434310410249
C         4.90708939381985   -2.35232085733289    3.98077795290831
H         4.57397387050823   -1.94587194815782    3.03334362199948
C         5.30275982343433   -3.67205359273574    4.07413172617510
H         5.26261617944566   -4.31234389820027    3.20493628315925
C         5.76340102747747   -4.16862152778160    5.28296113850675
H         6.08126569378990   -5.19815255094559    5.35831219764082
C         5.82889701518970   -3.34083916920515    6.39059946499323
H         6.19963386712647   -3.72436536478581    7.33017182969537
C         5.42962757999423   -2.01831883880935    6.30138370081387
H         5.49803217699404   -1.37580918839291    7.16716709541406
C         2.62788537806387    0.08619861834300    5.27998067122339
C         1.96606074740195    1.21740104583251    5.75134959110212
H         2.53294519127042    2.10954216687888    5.97922489088887
C         0.59543446471608    1.20557484667925    5.91867964625328
H         0.08972760865906    2.08865545528078    6.28130960687868
C        -0.13273115129190    0.06764301821487    5.61138357529382
H        -1.20575543060066    0.06355169839837    5.73133275331868
C         0.51886809781571   -1.06206735895378    5.14836892720755
H        -0.04510103856259   -1.95213601458447    4.91065851601208
C         1.89169084181176   -1.05328758453827    4.97797647465539
H         2.39485251416921   -1.93592916446946    4.60831253427865
C         5.08302286417580    1.07838801680033    6.30780827060141
C         4.55196806869026    0.95374047532621    7.58870128082627
H         3.68457199733782    0.32942002078254    7.75562867539499
C         5.13131425060367    1.63711722660286    8.64219328390907
H         4.71972710537852    1.53811895583676    9.63635967301613
C         6.23661783867497    2.44625390162491    8.42799824858557
H         6.68259708507091    2.97762334433385    9.25596822134195
C         6.76745838718087    2.57341518242332    7.15515603152110
H         7.62914863829550    3.20291843814101    6.98778912754022
C         6.19122928585257    1.89090603949454    6.09965099594485
H         6.60108478040020    1.96708113699668    5.09874738671538
C         3.82470397259057    2.28943419353622   -0.03891352745328
C         3.09317338892714    3.44406881200890    0.23006828901078
H         3.45105095394499    4.13951427590260    0.97678863704760
C         1.91382120949308    3.69734609427686   -0.44206215246374
H         1.34571613115669    4.58715364414249   -0.21554362931221
C         1.44924954467589    2.79956783963586   -1.38962738009192
H         0.52032976946276    2.99172466228245   -1.90494780772708
C         2.17604394193592    1.65555572401786   -1.66986744806053
H         1.81914658733758    0.95587950322239   -2.41169051720910
C         3.35540782177804    1.39607048242524   -0.99453584086594
H         3.91418286678855    0.49629881707934   -1.21152211623418
C         6.28566934200440    0.87337593115751   -0.10282418256368
C         6.03075970965272   -0.49527276502313   -0.11179165327047
H         5.26897420933270   -0.89468825057932    0.54673941660756
C         6.75951344276485   -1.33736093063376   -0.92817361780851
H         6.55989221398673   -2.39904506489769   -0.92732193749896
C         7.75782055580099   -0.81828040111352   -1.73700564628324
H         8.33638255412824   -1.47498991256531   -2.36999214383879
C         8.02352218156891    0.54010236078192   -1.72213089866623
H         8.81033658695449    0.94335368064158   -2.34310410021796
C         7.29217264914901    1.38796986215696   -0.90795718262471
H         7.51570579213894    2.44485257628930   -0.89172475683081
C         6.14542767035707    3.48349681703474    1.08364553773458
C         6.14968845508280    4.40342438001471    0.03945005364435
H         5.59432662879369    4.19565337380597   -0.86511521839717
C         6.85726887226413    5.58465116855383    0.16931410485551
H         6.86116311998941    6.29924091992039   -0.64105736023352
C         7.55961815312431    5.85530219812734    1.33371821443206
H         8.10854264756287    6.78088731423786    1.42738197937047
C         7.55583940252533    4.94311373562198    2.37620350300326
H         8.10272861336908    5.15469917036075    3.28345462923312
C         6.84953827241180    3.76150234516591    2.24925819179121
H         6.83838035499201    3.02784508239678    3.05004368920628
O        -1.02005035726351    4.54900839436772    2.44747991183033

