93
CSD_code = GOGCOV | q = 1 | S = 0 | Stoichiometry = C48H38MnN4O2(1+) | MND = 6
Mn        6.76314348888109   -0.00009556291896   11.30954596500588
C         6.10637104182045    0.76888005462069    8.01903711446306
C         5.53988329545257    1.58923295560320    9.00060361000147
C         4.78216862856788    2.77584683337892    8.72913293962096
H         4.56148008625032    3.15483439985304    7.75116673889035
C         4.43755086256710    3.31277538431696    9.92643172669062
H         3.88411746551251    4.21247257206644   10.10787404624215
C         4.98173673657351    2.46135932141149   10.94366270701398
C         4.86812888152402    2.69620130532573   12.31847522998503
C         5.46550426435325    1.91593120539557   13.31452019542034
C         5.32376407078085    2.14421413312451   14.72303175184573
H         4.74452507617942    2.93044099505599   15.16450612793448
C         6.04431281078135    1.18589691288915   15.35788673207533
H         6.17995278091788    1.05764121540202   16.41318805392114
C         6.90795386283342   -0.34887123103694    8.27388644767787
C         5.85132918831483    1.12253551374660    6.60517082636178
C         6.90230543447686    1.49081496993719    5.76966982275497
H         7.90765141322755    1.52630405491270    6.16440599697361
C         6.66043359673174    1.82814417040277    4.45034170775697
H         7.48167508585141    2.11912352621808    3.81311502611727
C         5.37020196740594    1.79305047840493    3.94782486523861
H         5.18375400982207    2.05267555494136    2.91730349741153
C         4.31998598496628    1.42434931803887    4.77214259957794
H         3.31309097892815    1.39277962944163    4.38444108540720
C         4.55653345115519    1.09594642648059    6.09465753796189
H         3.73907931045216    0.80134345666714    6.73668436018474
C         4.06021908982134    3.85850796775843   12.74738671435166
C         2.70187060471706    3.91924292496851   12.44749287289687
H         2.24032106311591    3.10390207450365   11.90938074163872
C         1.94446932353101    5.00352292068040   12.85153760310461
H         0.89062682864874    5.03652822997647   12.62023590323295
C         2.53511598597131    6.04383759357752   13.54964185792473
H         1.94392778094665    6.89108615655268   13.86078976052359
C         3.88709748057882    5.99367750622716   13.84650591119669
H         4.35293249967218    6.80403329174384   14.38640437675069
C         4.64571456381284    4.90632734285752   13.45286660136179
H         5.70229608624961    4.87134980381724   13.67606008517181
C         9.11149971572046    1.75369745568043   11.12597380536345
H         8.90688351055701    2.69283670998861   11.66679335675250
H         9.97389018910423    1.25571519671377   11.59992307257171
C         9.41040764461773    2.04476477664084    9.65273999751237
H        10.27314437526792    2.69927168262987    9.57446736660247
H         8.55160029572904    2.52756533308505    9.19017300317890
H         9.61828010217539    1.11498638947932    9.12689326378091
N         5.65094850090499    1.43063613025539   10.35115350030278
N         6.25346069761491    0.81954159815803   13.11814745851303
O         8.01592797494791    0.93412712611577   11.24787888135512
C         7.41921567556236   -0.76969337542589   14.60025378770158
C         7.98662730987879   -1.58941930263906   13.61870610287558
C         8.74551345964457   -2.77530470644541   13.89016699837512
H         8.96649101161115   -3.15414014854333   14.86812592140177
C         9.09089625588933   -3.31173721822611   12.69287135018823
H         9.64536140378270   -4.21079744002417   12.51141982166208
C         8.54587860283645   -2.46082338143910   11.67565621002444
C         8.65937805528765   -2.69565723205623   10.30082726140166
C         8.06099677887437   -1.91605698854214    9.30487409636356
C         8.20193174683485   -2.14493793979008    7.89638592112157
H         8.78111455675014   -2.93121753088924    7.45493360253391
C         7.48066571144993   -1.18716941759455    7.26150985567257
H         7.34430259094942   -1.05948712163432    6.20623242667519
C         6.61749507565318    0.34797678519627   14.34544110999058
C         7.67343009372178   -1.12375845603295   16.01417230827358
C         6.62193934182506   -1.49289800531847   16.84864776183471
H         5.61695131250321   -1.52878275449774   16.45303285804066
C         6.86285344128689   -1.83050516359763   18.16807649089548
H         6.04121814879241   -2.12212297554932   18.80450302820721
C         8.15263202872567   -1.79483305191118   18.67171317620342
H         8.33833331802078   -2.05463850918460   19.70232391437153
C         9.20334705767076   -1.42526474434939   17.84842130576804
H        10.20988434867568   -1.39322536272937   18.23701235780713
C         8.96776356153867   -1.09657113127627   16.52580345706604
H         9.78559906602920   -0.80125870059598   15.88458906762241
C         9.46839328595381   -3.85722860158198    9.87195027061146
C        10.82695115453199   -3.91615100174653   10.17126868507834
H        11.28772244352041   -3.09999680111938   10.70881602888693
C        11.58550864989428   -4.99970250167073    9.76744527426549
H        12.63948815176292   -5.03130853656168    9.99832178756317
C        10.99582393354707   -6.04109930683617    9.07014152804259
H        11.58791051766293   -6.88778604439130    8.75917126309087
C         9.64365247608714   -5.99273839470359    8.77385151678892
H         9.17857563616080   -6.80393921714833    8.23456807444026
C         8.88386712942727   -4.90611781579409    9.16727459270541
H         7.82714236956390   -4.87257035695735    8.94454127309695
C         4.41500199775101   -1.75429217573125   11.49255984995098
H         4.62045892956947   -2.69346708523426   10.95214124136662
H         3.55288207040116   -1.25666904228576   11.01774439389898
C         4.11484245297972   -2.04521814510665   12.96555980166751
H         3.25404980873222   -2.70238077329211   13.04295482685188
H         4.97455360500994   -2.52513117240229   13.42956392806770
H         3.90335029812456   -1.11579897618539   13.49061600763421
N         7.87560162770949   -1.43082813103401   12.26815636013217
N         7.27277893555382   -0.81979855145202    9.50122250074564
O         5.51045648423939   -0.93443930076667   11.37147775643569

