35
CSD_code = GOGDIQ | q = 1 | S = 0 | Stoichiometry = C14H18AuN2(1+) | MND = 2
Au       -1.49543406381580    3.41978484164190    3.91019670867248
N         0.23796374976296    3.41978820608972    5.16729514811004
C        -1.24193644300354    3.41983502372836    7.12706929569605
H        -1.36253665147009    4.29923741527073    7.75763038498034
H        -2.02094355154533    3.41985407037368    6.37079519662295
C         0.11005856807536    3.41981278063548    6.50382710958446
C         1.21857896916458    3.41981670884714    7.34107745633768
H         1.06935168912737    3.41983572559541    8.40848619559023
C         2.48972843079686    3.41979745210476    6.79898416096528
H         3.36291831301712    3.41980221454757    7.43165627662352
C         2.60904722303443    3.41977196037019    5.42222113403434
H         3.57682290622956    3.41975603451668    4.94786775295192
C         1.46823768126473    3.41976625596223    4.62957626988772
C         1.63926657395928    3.41973314800999    3.15070333229491
H         2.20064703514992    2.54024815403065    2.83952830338442
H         0.67772213913781    3.41975003304136    2.64635941586622
N        -3.22883267244564    3.41978819712251    2.65309825786120
C        -1.74893286421377    3.41983504035734    0.69332388707618
H        -1.36256867928501    2.54042839875999    7.75761889376356
H        -1.62830133878961    2.54042730043139    0.06277617267536
H        -1.62833332042290    4.29923858282675    0.06276473580567
H        -0.96992794338200    3.41985407559217    1.44960034171706
C        -3.10092756156964    3.41981279275314    1.31656637151996
C        -4.20944945926041    3.41981670393450    0.47931647111170
H        -4.06022231832096    3.41983569890138   -0.58809265383119
C        -5.48059860884350    3.41979744840064    1.02141154294516
H        -6.35378773082185    3.41980219905755    0.38873782964168
C        -5.59991674518696    3.41977195822724    2.39817402263803
H        -6.56769071395789    3.41975604281085    2.87252855410416
C        -4.45910615243343    3.41976623229037    3.19081798230057
C        -4.63013289406353    3.41973314982838    4.66969114378749
H         2.20069696470001    4.29917394255636    2.83949395481571
H        -5.19156203591184    4.29917481682530    4.98090039003397
H        -5.19151207133027    2.54024729671314    4.98086614179194
H        -3.66858642334611    3.41975009784515    5.17403181863922

