38
CSD_code = GOGFIR | q = 0 | S = 0 | Stoichiometry = C12H23AuClN | MND = 2
Au        7.15382796767599    5.78353163641333    4.41598401092289
Cl        6.92459065809834    3.63165309778488    3.80506037614090
N         7.39847559207345    7.89865023296535    4.98679234617493
H         6.43875098716643    8.21467508966832    5.12474320067384
C         8.08404124091644    8.04954020293433    6.28717091008613
H         9.09672948722267    7.65233452257201    6.17083097270203
C         8.16429615234988    9.50073419279650    6.77222724834990
H         8.72262372416090   10.11372978005340    6.06292922548161
H         7.15383659048230    9.91030198577538    6.85717040282563
C         8.86184759436139    9.57523164713189    8.12921334171061
H         9.88824981447111    9.21654208524624    8.02408582586001
H         8.90388506792030   10.61524307627286    8.45797006823055
C         8.13510037851568    8.72696748530684    9.16579347178770
H         8.66247802625754    8.77380117803960   10.11965633288984
H         7.12825083845734    9.12150382056768    9.31995374537702
C         8.04856485348844    7.28215205248775    8.68690761938110
H         7.50099313918128    6.67762830883238    9.41114417706027
H         9.05406209692540    6.86640352133657    8.59590370186902
C         7.34779440072354    7.21335816238045    7.33406961482348
H         6.32442179678784    7.58480227661993    7.43649996559997
H         7.29406521966468    6.17556542363968    6.99380875567004
C         7.94211423016621    8.67965936410088    3.85588672688313
H         8.02533172100574    9.73737346170333    4.13923617830816
C         6.97245111888794    8.58637718848866    2.67837737018276
H         5.99477059256331    8.97808819079935    2.97236146257078
H         6.84427962778997    7.53398035272431    2.40957905943486
C         7.49887706251659    9.35911827457454    1.47280506541965
H         6.79611027839394    9.26126950879031    0.64421043104564
H         7.57585252230121   10.42024645090165    1.72320866656845
C         8.86921733154634    8.83137198919449    1.06356514516500
H         9.24716909799596    9.39782209902641    0.21097094841502
H         8.77966596821983    7.78622562479436    0.76177642665290
C         9.84183319793153    8.93966917078041    2.23210718470474
H         9.97356697028062    9.99147066897770    2.49920286592985
H        10.81708289583610    8.54395135336598    1.94523431369263
C         9.32018701801492    8.17008236636003    3.44290146127367
H         9.24110862612873    7.10684702318012    3.20093248474325
H        10.02559611351626    8.27689713341154    4.26852889539172

