63
CSD_code = GOGKUK | q = 0 | S = 0 | Stoichiometry = C23H36CoP3 | MND = 6
Co        8.92101739690953    1.13922734063886    4.85220871439881
P        10.53042209152710    1.73696648070329    3.47395888657361
P         7.04152254918665    2.34089176728009    4.15923739396147
P         8.39962132653011   -0.86776374234986    4.19082315792070
C        11.68014236980492    2.67510505258930    4.57786336423919
H        12.26866000350579    1.91969437351623    5.10577836764626
H        12.37608243620526    3.30260228386065    4.01354347184607
C        10.82350027868555    3.46261422694231    5.56872138312325
H        11.42841436071001    3.75764636054943    6.43601406125335
H        10.46103930999450    4.37861730067555    5.09460500831418
C         9.63040840786726    2.64196633074627    6.00563302437638
H         8.80055373612488    3.24600410637570    6.37366176296502
C         9.79663836082375    1.37593448200332    6.61737626657959
H        10.77824568577402    0.93233743187476    6.75594830043264
C         8.62709142728383    0.64353842440835    6.85104450789437
H         7.72609359499575    1.17185297278924    7.14372926533467
H         8.70571785562093   -0.34688633293976    7.28628993993280
C        11.75809407280367    0.63907961626864    2.67701191462395
C        12.17812248440605    0.71818476338494    1.35504409720468
H        11.79487606777913    1.49478761235064    0.70889256823686
C        13.09478124623948   -0.19515945556523    0.86196599445384
H        13.41671836440437   -0.12577721849196   -0.16760352514528
C        13.60184031738305   -1.19195030395730    1.67765758182084
H        14.31588774958757   -1.90194824747100    1.28632149649071
C        13.18848977121730   -1.27726364267375    2.99852509615587
H        13.58178623322762   -2.05422586998724    3.63933411914590
C        12.26989337196004   -0.37092561048152    3.48866471644903
H        11.92519348896000   -0.43481971549059    4.51317059130929
C        10.16614103485433    2.88695733189026    2.10638045669576
C         9.37587495331792    2.36839306611599    1.07995736836500
H         9.09275178010774    1.32481612337122    1.12686298131290
C         8.96614551403699    3.16274342308856    0.02811274524955
H         8.36231972566426    2.74530517354012   -0.76586260645600
C         9.32563644168123    4.50206966192360   -0.00586298159352
H         9.00183878275689    5.13037211396054   -0.82282268766561
C        10.09663136077338    5.03081698086885    1.01465584717979
H        10.37436449303407    6.07544679027565    0.99360785400586
C        10.51514176351424    4.23146547644339    2.06576133797128
H        11.11338979130501    4.66765477936125    2.85116094185618
C         7.24078883433653    4.14287947652736    3.83785226576858
H         6.27624469563676    4.60739370336622    3.63527428719866
H         7.89821250044542    4.28008019458503    2.98226012135808
H         7.69632174222743    4.61791795281329    4.70348510594198
C         6.05434294499996    1.93875742655251    2.65251407921039
H         5.20400460598175    2.61265593953966    2.55500222529458
H         5.69697526736077    0.91272234428394    2.70740173995309
H         6.69602211108485    2.04021558269753    1.77991280621831
C         5.66136879777129    2.43893638939879    5.37657266677908
H         6.03181504905981    2.89928628237960    6.29042232232852
H         5.31637684783114    1.43437047206999    5.61232082120043
H         4.83382879803575    3.02892956270835    4.98454739791679
C         9.42741712039156   -2.28779640796656    4.74911742326371
H         8.94962272867710   -3.23158968224463    4.48748418232197
H         9.56216019011661   -2.23548976132921    5.82698277323839
H        10.40160269463410   -2.23094994987377    4.26851154319366
C         8.34982633192413   -1.27480793308638    2.39509381880477
H         9.33849792826675   -1.09798600565629    1.97262720368767
H         7.63303526165563   -0.62521549213634    1.89742640381739
H         8.06872843347529   -2.31585638287735    2.23865999176085
C         6.74749095598249   -1.49980668235699    4.69466459808544
H         6.57152314564958   -2.49900250053510    4.29725463696314
H         5.97836672033099   -0.82087353034078    4.33306747973176
H         6.70193629355569   -1.52384270690508    5.78137132149819

