45
CSD_code = GOGLEV | q = 0 | S = 0 | Stoichiometry = C13H26CoIN2P2 | MND = 6
I         1.40255598232348    3.05973570025690    4.26192963303427
Co        2.65208467423428    2.12877502767633    2.17326317774151
P         1.02997641760093    2.92775411776454    0.92375925894747
P         4.19866456842656    1.34476975081612    3.52437836711359
N         3.74519328477018    3.84284785563852    1.88739133054578
N         5.44740833477456    5.89685271554453    1.07653576898376
C         3.60095527311728    1.54755963689233    0.66377846544367
H         3.51322351191649    0.57788845460932    0.17914599078793
C         4.46799836775901    2.43789489804050    0.15247018533968
H         5.09138091593291    2.25621194881409   -0.71611850619986
C         4.55676664215273    3.69955320966137    0.81448964768495
C         5.40147908430195    4.75310790040907    0.43255934667039
H         6.05358174339435    4.64720993932113   -0.42427400329830
C         4.64360374672326    6.02270595328089    2.12960201873708
H         4.68286670893569    6.96359101824451    2.65789790545922
C         3.79784072248891    5.00507086958958    2.53377170490533
H         3.15550331517546    5.13508050214164    3.39275757461177
C         1.75475197444613    0.33990397805142    2.17595287187820
H         2.47214595237102   -0.47889409889875    2.27918154058083
H         1.20973039337583    0.15256245168514    1.24673270400477
H         1.04352843373926    0.26339946789315    2.99892302059540
C        -0.69435905308804    2.45423818977322    1.30733639750753
H        -1.36114492052535    2.90723037235413    0.57308533094653
H        -0.95357342077920    2.80601289897387    2.30430387719283
H        -0.80067765445250    1.37190464515742    1.27731809780025
C         1.07873722507074    2.55768997502207   -0.87164661280374
H         0.21453945563638    2.99842516811484   -1.36869053790968
H         1.07156148887005    1.47912663248630   -1.01963808820526
H         1.99322125940221    2.96206603109955   -1.30291024456415
C         0.85202044758966    4.75144205357264    0.86633666313309
H        -0.00736513834819    5.01009906598520    0.24736665865671
H         1.74838008093140    5.20466088738450    0.44352565431834
H         0.69797516219609    5.13477369639592    1.87418576343505
C         3.69400949190393    0.25636168083220    4.90452599230231
H         4.58131798173893   -0.05816171800554    5.45471505532893
H         3.17537853556173   -0.61884965302253    4.51900891310540
H         3.02389138246053    0.79892589547371    5.56881488144918
C         5.54108150314101    0.33576853414139    2.78779320732753
H         6.22883455621349    0.00301103348466    3.56531714374352
H         6.08172182430190    0.92894768743168    2.05176328857409
H         5.11125890340268   -0.53088515281406    2.28835353790393
C         5.19805453199344    2.57807172012739    4.44120413504271
H         5.89444566359191    2.05888444253364    5.10021049052036
H         4.54132791115695    3.21028228400200    5.03743911893768
H         5.75952273407423    3.20049233207318    3.74475327267645

