44
CSD_code = GOGNUO | q = 0 | S = 0 | Stoichiometry = C20H17FeN2O3P | MND = 5
Fe        3.80226071720463    5.36716872691459   15.19169212961774
P         5.14371090624166    4.66568761677780   16.74846879582662
O         1.46164743500419    4.01216647576972   16.24071606123518
O         2.36367878390860    7.86685102792625   15.70206497237429
O         3.63080588876806    3.87338493228173   12.68452291723668
N         6.59235785830591    6.20397146085507   14.34694506727010
N         5.07373354409030    7.40371615382131   13.44140602596541
C         5.24729604875619    6.37267266774996   14.30483464812829
C         6.26720418495888    7.86912443946311   12.96006378610490
H         6.33944273041330    8.68047131686951   12.26616555693785
C         7.22550005642616    7.11024920513459   13.53516358130226
H         8.29089211467945    7.13851918049692   13.43272473117671
C         7.27624518453208    5.21208755887088   15.13810607932827
H         8.35262803143637    5.35621078269876   15.00666120677898
H         7.00882363976822    4.21132986536363   14.77005703838992
C         6.88058288301956    5.32212391552155   16.61027556163364
H         6.91294372960450    6.36885971470270   16.92168019298171
H         7.56399543999689    4.74055041172025   17.23322364954125
C         2.40232559856368    4.53741512513625   15.83205286726098
C         2.95369894827073    6.88896850761570   15.52214315288698
C         3.70671040872016    4.43376264288025   13.69397397637274
C         5.56861729405448    2.89079136719079   16.94882233874684
C         5.08771583710324    1.97356798290761   16.02447001348298
H         4.45094529664939    2.32664920898199   15.22223762494602
C         5.41240359895301    0.63215249622546   16.13434756756579
H         5.03229205075428   -0.07554413832877   15.41217341900510
C         6.22061173899801    0.20050280465449   17.17168538265037
H         6.47503696582501   -0.84545499409820   17.26090585074504
C         6.69932386844754    1.11041453249014   18.10278355993582
H         7.32338251348539    0.77145892708397   18.91726309634062
C         6.37655453498797    2.44913374684772   17.99491893824382
H         6.73421426705016    3.15411346269300   18.73432461424834
C         4.73545382712354    5.06893810591035   18.48491465902415
C         4.02631027273274    4.15059386291599   19.25547954359748
H         3.80155523633337    3.17318180784477   18.84881517827804
C         3.60944347989369    4.48347110474756   20.53089867240827
H         3.06498109748300    3.76220933898880   21.12299646534922
C         3.88198419461615    5.73989121146914   21.04615864099426
H         3.55798506088319    5.99862463153699   22.04345308274581
C         4.55387682259767    6.67145024981009   20.27143189514430
H         4.74783795460242    7.66014438542371   20.66213455459902
C         4.96614004551673    6.34366163902715   18.99350494284657
H         5.45706677780876    7.08866364906932   18.38206902052293
H         4.16608313143004    7.76559288803863   13.19406894022846

