75
CSD_code = GOGPUN | q = 0 | S = 0 | Stoichiometry = C35H36NPSiZr | MND = 13
Zr        2.83400306273739    1.76686678591475    9.90132273142791
P         0.41285384189835    2.29633527854661   11.85934575739389
Si        6.89747950602073   -0.07095738537938    8.54541764120238
N         4.84654084810445    0.88698985414596   10.01039681792321
C         2.01899895408132    1.40195806822752   11.95940565765575
C         2.22809971680674    0.48859877278009   12.93113681806464
C         3.38017250789241   -0.38616503601140   13.05166038474776
C         3.53637811739488   -1.16205308686435   14.20070446609343
C         4.55041744988591   -2.09242347021613   14.30987372508025
C         5.41872721505820   -2.29541030979622   13.24451420421092
C         5.30162503454469   -1.53376564489015   12.10100905379622
C         4.32056658017917   -0.53716696806441   11.99439309357533
C         4.07180883760281    0.23821726137314   10.81261231747812
C         6.29943455954812    0.90269817214250   10.09462009324169
C         6.33625487631267    0.98348393435191    7.05484990767299
C         6.06410230477906   -1.78809603754088    8.47335800641100
C         8.79518740012320   -0.25261477818199    8.58498845382794
C         0.73511896247982    3.69400286685794   13.01874652126365
C         1.79789413692121    3.73192969113707   13.91484034605701
C         1.94503867529400    4.80654768363805   14.77456877679945
C         1.03637949014083    5.85161845342244   14.74857660356274
C        -0.02452838697028    5.82062836401715   13.85862131984550
C        -0.17183326729681    4.74804325547909   12.99873616538483
C        -0.73534678812918    1.37972091441065   12.97700598065869
C        -1.70018799100495    0.58101407551783   12.36942853953504
C        -2.56533672738600   -0.18531749865147   13.12717013632025
C        -2.47467316768168   -0.16643135683116   14.50935086093286
C        -1.52372270883032    0.63016331288103   15.12470695873686
C        -0.65965991614197    1.40079459473898   14.36718307122371
C         3.25680370080912    4.07543039618400   10.90574426055867
C         2.20426143364281    4.23327576713642    9.97471651242470
C         2.72967719864588    4.00842124535046    8.68765001646669
C         4.09690586627423    3.68500737235542    8.81959287278102
C         4.42369303769630    3.74943947964381   10.19202426328036
C         1.96477850873341   -0.51251547109980    8.96705441718798
C         2.67658869595932    0.08995128457776    7.91392660271972
C         2.01841873911841    1.28769341354279    7.56867660742349
C         0.89699574703868    1.43243651988225    8.41880721100207
C         0.87043001686487    0.31549633775958    9.28565400105505
H         1.49428119600704    0.31732428996422   13.72292604698374
H         2.83421811931883   -1.03897054674876   15.01443700961589
H         4.65380899625734   -2.67863005204882   15.21122248839017
H         6.19222163718420   -3.04691176903177   13.31346508470079
H         5.96346867358340   -1.71379541788541   11.26741596735697
H         6.65378246458892    0.49669696047892   11.04814442390593
H         6.65329964582420    1.93363168303222   10.01315987866552
H         6.41364390654329    0.43538584552259    6.12049909609514
H         6.94202096765767    1.88003502292523    6.95368281261249
H         5.29901550265128    1.29309313466123    7.17792925069766
H         6.01476656154305   -2.15489349168823    7.45202397557631
H         6.61132366086538   -2.52856174605787    9.05022424688224
H         5.04806011980705   -1.74871104992507    8.85963483368558
H         9.14525004362310   -0.77479538205455    7.70095537012023
H         9.12776419834342   -0.81695214292018    9.45076011491859
H         9.29118734186556    0.71241734808748    8.61302021369450
H         2.51159478958822    2.91713908654113   13.93486994114792
H         2.77250548057742    4.82770351849193   15.47003121660716
H         1.15526334795083    6.68842892998021   15.42123187058837
H        -0.73528680772663    6.63412445141745   13.83563400388631
H        -1.00052414323829    4.71699763874954   12.30320911121015
H        -1.77836367738555    0.57487688003479   11.28991977970557
H        -3.31245434365817   -0.79697924511072   12.64182827292422
H        -3.14742122428799   -0.76569087182054   15.10541639162212
H        -1.45467270307931    0.65241072590342   16.20336366407500
H         0.06526158406378    2.03313713738014   14.86059171413132
H         3.21502245849389    4.32237810822235   11.95752892220118
H         1.22134074321974    4.63074058941182   10.19613618229032
H         2.21108230456155    4.20172075001571    7.75635575827509
H         4.80449926229653    3.57765790116002    8.00585300399088
H         5.41710834135500    3.69343231760277   10.61946928451924
H         2.16207450388471   -1.48536334193793    9.39904861860860
H         3.50098105369166   -0.35656056774584    7.37447069851075
H         2.23774641161956    1.89044303782757    6.69411332719475
H         0.11459298972448    2.17883681945689    8.32576941829826
H         0.07529052345644    0.05775733571261    9.97426683146907

