71
CSD_code = GOGQIC | q = 0 | S = 0 | Stoichiometry = C26H27N13PS3Tc | MND = 5
Tc        5.37326910450178    7.25120664277971    2.07250811677467
N         7.20540476253373    7.28220978714303    2.79523693430850
C         8.27910716054934    7.30063148432904    3.21890011535653
C         9.60536372427174    7.32298010674628    3.74138304404344
H         9.70077899444604    8.14205347559766    4.45656561209414
H        10.31567650682793    7.46789868111344    2.92536995202221
H         9.81511984486068    6.37622294278726    4.24247023736311
S         4.53825877306694    7.91207033182755    4.12074843476000
C         5.95629917614770    8.16014402264897    5.07152593499605
N         6.52269861146632    7.22104304065241    5.87256694191026
N         7.61713067524670    7.77365027489209    6.39032332314640
N         7.70540534227732    8.95814004026919    5.94285573352479
N         6.70398799046261    9.24687101586878    5.12673083134575
C         6.14423905526720    5.85709318332531    6.07791151534317
H         6.62944439278349    5.50669292899001    6.98598698570864
H         6.47416497924861    5.24073645649874    5.23228339396352
H         5.06080025236922    5.79095085846936    6.17453130037324
S         5.58712431387374    5.00530946061297    1.58334227563090
C         7.14493187589187    4.60490785628826    2.20748056082969
N         8.29495955979482    4.62759499199078    1.48543667490936
N         9.27702246511327    4.30949890006244    2.32541731067661
N         8.76268429632786    4.10415633526450    3.46747675117271
N         7.44969246043540    4.27137015577173    3.44800946195756
C         8.50358029469197    5.01700913937747    0.12507348101036
H         9.47165257518229    4.63393445566491   -0.18948297136722
H         8.50391725810688    6.11088897604069    0.03972611790952
H         7.70969412029158    4.60446262028239   -0.49711299747944
S         5.95130921631310    8.83659900030037    0.49736599438659
C         7.64091565971116    9.06653099619408    0.75991316475251
N         8.17418393873654   10.02026186462671    1.56637205903582
N         9.49287031617558    9.84187437929258    1.54484219810825
N         9.74146758916092    8.85969378836051    0.78028300033262
N         8.63321243310688    8.34710769263483    0.26914809688463
C         7.51253119363052   10.98103908534085    2.39391610861199
H         8.23412192403721   11.75075317487869    2.65801877259194
H         7.14435842485221   10.50256986048140    3.31011052715130
H         6.67447932853227   11.41475690256632    1.84877397147542
P         3.16359207557963    7.21439275404336    1.20241689011917
C         3.02608903414885    7.44467802145764   -0.59630404769809
C         2.09482957846038    8.28723122707754   -1.19138624822185
H         1.40152808519664    8.84566846859300   -0.57853726890544
C         2.06091995132488    8.41012489448857   -2.56979392295339
H         1.33751989012714    9.06683197540290   -3.03046696927792
C         2.94993359897066    7.69780788829175   -3.35699397940845
H         2.92076386529874    7.80026681708576   -4.43158407104435
C         3.88082775247989    6.85688481536866   -2.76676097023610
H         4.57676139464228    6.30430109785695   -3.38042573263700
C         3.92173927641519    6.73318364968730   -1.39165165663561
H         4.64837679154911    6.08420614410370   -0.91769812303421
C         2.04109058494868    8.48623763802933    1.85793847301415
C         0.73746834598561    8.22300125267211    2.26105073701040
H         0.34192760392470    7.21964589897990    2.19080753034709
C        -0.04993892639680    9.24900569257457    2.75460006304824
H        -1.06244806792571    9.04219414786673    3.06900394960286
C         0.45544440740632   10.53480242594211    2.84800819087722
H        -0.16260709767337   11.33045488976345    3.23665283799574
C         1.75584655376060   10.80090898747018    2.44767187335181
H         2.15132892487003   11.80290772625902    2.52418288528314
C         2.54736895726141    9.78032792839616    1.95797783356847
H         3.56719107271770    9.97376312041020    1.64756053175360
C         2.23701062725254    5.67500435158372    1.48359037865714
C         2.31094692004433    5.12096655206021    2.75975314240162
H         2.90299579467654    5.61912383947845    3.51811619786862
C         1.63679630849903    3.95091612598823    3.05015971097519
H         1.69643278037452    3.52383604027574    4.04025819512313
C         0.89009492826628    3.32174130290632    2.06593825757231
H         0.36760463762866    2.40358256134662    2.28972493777110
C         0.81769656369553    3.86677431996575    0.79509011039489
H         0.23756602762994    3.37459301207579    0.02828227556703
C         1.48815254443889    5.04120878097943    0.49936194203128
H         1.43219062413793    5.46391074155849   -0.49375291989249

