74
CSD_code = GOGRUQ | q = 1 | S = 0 | Stoichiometry = C33H34CoN4O2(1+) | MND = 6
Co        0.58072155229664    6.69813218434894    2.82182134350840
O         1.15178600841936    6.00922355751341    1.15907981688161
O         2.19494064155043    7.67476697956826    2.69741082709162
N        -1.01025258862165    5.55217648940058    2.77599400487459
N         0.19583586641096    7.49966772238448    4.57035625250651
N         1.53853049215072    5.27904584127697    3.71672609090256
N        -0.25039873097370    8.13231850091259    1.83063718176021
C         0.90988259669794    4.85110348119547    0.68700447080866
C        -0.05663339079655    3.99966433522863    1.20502282871237
H        -0.13680494410336    3.00634654145474    0.80081327770863
C        -1.00709167983579    4.38425801015157    2.16152773963099
C        -2.10419953744930    3.38560536152816    2.41526006953083
H        -3.05403350100981    3.74484856089265    2.01977420571773
H        -2.23466270423235    3.20993890712522    3.48185032214940
H        -1.87466295171576    2.44012178660661    1.93444865828246
C        -2.20022906335529    5.86352141360827    3.54706544188154
H        -3.08671394101895    5.71754806403188    2.91703820210538
H        -2.29096964228816    5.17912325100776    4.40320172629027
C        -2.23767770269242    7.28872615971506    4.07560069595444
H        -3.20374663229999    7.43883877157697    4.56208855081056
H        -2.16583466611695    8.00165475258129    3.25617865303459
C        -1.15207445877148    7.55162234661983    5.10729251536993
H        -1.33174906452402    8.54597767028082    5.53497621905820
H        -1.26869605270686    6.81999179772720    5.92018602735293
C         1.15880916501739    7.88850229631596    5.38449850244827
C         0.86375448545076    8.18502267668452    6.83030438153322
H         0.32626906532878    7.36169350325057    7.29781943146301
H         0.24757468945908    9.07907907675441    6.92394383630590
H         1.78565950899227    8.35197361626176    7.37810570862463
C         2.48335713035043    8.11603782216406    4.98491700968888
H         3.18934910143866    8.39820920567904    5.74585362322587
C         2.91167962092912    8.08901403484034    3.66478504483605
C         1.72751349037506    4.44227699272636   -0.47961243431331
C         1.33709549362236    3.43900089421685   -1.36501894242082
H         0.39008096373231    2.93733431909167   -1.24229745562355
C         2.14900604409074    3.09591783981071   -2.43031744345271
H         1.83633298573743    2.31830693827793   -3.11075302767754
C         3.35483783531392    3.74770258181703   -2.63289552641656
H         3.98465410641922    3.47319631435833   -3.46516179682676
C         3.74196223154682    4.76115467939226   -1.77113140699099
H         4.67413281393360    5.28184444526455   -1.93170092970668
C         2.93249989071083    5.10803873260727   -0.70783616596963
H         3.21603459799274    5.90749006974458   -0.04005668425657
C         4.27146693205133    8.56308643011961    3.31376134823410
C         4.96935292503341    9.48349169454474    4.09356206364680
H         4.51549648854652    9.90612089020514    4.97637792770170
C         6.23910861333309    9.88725341562040    3.72423078863505
H         6.77050877640004   10.60245664931760    4.33366014420117
C         6.82850904510831    9.38481996637244    2.57531860057155
H         7.82126447961930    9.70130549307181    2.29433895644498
C         6.13432166435589    8.48532382564648    1.78252428255683
H         6.58404395239348    8.10039357513383    0.87961789637141
C         4.86408117866563    8.08369332481687    2.14579496480141
H         4.30939800297328    7.39460630474757    1.52734294659107
C         1.04467553977682    4.62634118273166    4.77140447422875
H         0.06495725592950    4.92106179233931    5.11340726259815
C         1.72620558351197    3.61478733547406    5.42141725035946
H         1.27534372842394    3.12434478581727    6.26937759066296
C         2.98363658462848    3.24818699735919    4.96821682947917
H         3.54201678447920    2.46308904372565    5.45332789017710
C         3.49856220613192    3.92177510772881    3.87343077272348
H         4.47076855257878    3.68054653929241    3.47512196064032
C         2.74829683591120    4.92248800485144    3.28284674872067
H         3.13444694722457    5.45708437672743    2.42879977655484
C        -0.93830288213840    7.88309865260608    0.71480664652038
H        -1.15383825888492    6.84853014591975    0.49226271066111
C        -1.37495786215591    8.87921572959264   -0.14029675172983
H        -1.92449309859388    8.61621265668323   -1.02983025053015
C        -1.09111498815042   10.20113769917562    0.16192303286136
H        -1.41005382835731   11.00124853497142   -0.48754382447927
C        -0.38756121237014   10.46341584390804    1.32624699203063
H        -0.14382490146928   11.47315311484354    1.61513308890011
C         0.01138399882193    9.40706213466764    2.12559648679533
H         0.55853183076623    9.59735022599448    3.03702054667703

