75
CSD_code = GOGZIL | q = 0 | S = 0 | Stoichiometry = C38H26N6NiO4 | MND = 6
Ni        1.57096658365261    6.78041336589491   12.08188264052027
N         3.28630236232676    7.26511565785463   12.90511746928339
N         2.55476247657382    5.46403237238190   11.32946681348865
N         0.11602325691388    5.95027746491128   11.05909967955527
N         1.04215178946782    5.79070332941072   13.69280577755851
N         0.58060706547943    8.09383731607074   12.83082386264695
N         1.83869465742769    8.11588040391087   10.66869077266598
O         5.43900947789381    6.49891763939785   13.03868769357618
O        -0.21584401492558    4.27970667873755    9.53072852312167
O        -0.29790850543006    6.03403288005814   15.53245751059150
O         1.33334999142684   10.29983236099546   10.20790485340106
C         3.39575745198778    8.21473998907467   13.92896447940246
C         3.30748762072398    9.57758458878103   13.63810606572568
C         3.35159486845447   10.50824148935068   14.65732088274878
C         3.48770329758183   10.09674535407594   15.97365303436764
C         3.58627762119129    8.74615147206831   16.26768955407367
C         3.53411319522819    7.80701575058589   15.25703394069169
C         4.30287234278118    6.43719037674493   12.60412066463966
C         3.84857795862253    5.38950302950143   11.61592501841088
C         4.63461665344628    4.39303303768522   11.05632358491767
C         4.03492569822866    3.48187636791027   10.19839501976559
C         2.67948781271541    3.58274399479064    9.91786223733794
C         1.95656267000233    4.60701110068882   10.51125414320082
C         0.49325549306467    4.91108983111941   10.29361113028728
C        -1.14456794225846    6.54553903580523   10.92025932617500
C        -2.06910900520782    6.48952692496849   11.96499827729169
C        -3.28387555484366    7.13623900785033   11.85069084893590
C        -3.59395178048484    7.84186890982662   10.69894421712186
C        -2.68424503670173    7.89312927021202    9.65484501927166
C        -1.46369585972898    7.25667273397786    9.76200132692582
C         1.27366095951962    4.41796910102514   13.84878957530387
C         0.24435236052415    3.50023612593296   13.63094358921466
C         0.49204755338844    2.14562598167679   13.73015286904860
C         1.76440608034131    1.68735036629003   14.03244905904503
C         2.79028924515376    2.59307763951415   14.25101448095343
C         2.55123770280609    3.95027273751915   14.16269226621451
C         0.21135775741081    6.46065609604157   14.51141493275155
C        -0.01440410247148    7.86144203123918   13.99421800173588
C        -0.78956483230570    8.84297988119202   14.59394829125566
C        -0.92767837920413   10.06306899710872   13.94727779852075
C        -0.29658114402567   10.27742055918086   12.72997121043379
C         0.46501547797292    9.25105964611586   12.19110073274392
C         1.25844682609301    9.30543188814475   10.90714639717915
C         2.76903105785143    7.94760475299111    9.63495911859439
C         2.48654898720149    7.09675147594221    8.56452789642447
C         3.43262310634964    6.88202997056545    7.58178805703131
C         4.66568655258904    7.51097133645595    7.64975877149121
C         4.94812689869545    8.36426862484468    8.70447513072073
C         4.01241521193618    8.57952579257068    9.69664701796047
H         3.20612167518664    9.90039545333639   12.61235728496523
H         3.28345966724533   11.56014932317781   14.42203175656285
H         3.51948608779142   10.82745435563428   16.76778573049043
H         3.69670571446263    8.42218759576685   17.29165643503967
H         3.59965348240832    6.75427207917283   15.48528437757281
H         5.68330652837450    4.35364465931634   11.30515208516843
H         4.62224050002618    2.69489128287924    9.74984971583264
H         2.17047598806352    2.89937234712025    9.25671577309158
H        -1.82980856784406    5.93788151109139   12.86219893665442
H        -3.99321925768705    7.08584980067112   12.66357202446283
H        -4.54357750057406    8.34855169200832   10.61484955375048
H        -2.92395574699261    8.43895529274516    8.75471582402515
H        -0.74889032065138    7.30551006750718    8.95485784224406
H        -0.74333192493344    3.85858118052607   13.38438601051320
H        -0.31026368553351    1.44297800096989   13.56217599354274
H         1.95623610095488    0.62700957897042   14.09925677519373
H         3.78167546377713    2.24120104001661   14.49564124763029
H         3.35081657040364    4.65492333536715   14.33766473870246
H        -1.26271351908835    8.62948847651598   15.53934492469724
H        -1.52602112390458   10.84473310120784   14.39053590220204
H        -0.37481729864305   11.20821557905676   12.19080081724984
H         1.52480834019743    6.60827450927174    8.50842936008473
H         3.20461703842663    6.22282673396988    6.75718638213634
H         5.40362205607139    7.33791890721189    6.88091460868243
H         5.90621398191376    8.85899423664221    8.75845557501200
H         4.23463978511161    9.23464512085468   10.52504076016705

