35
CSD_code = GOGZIN | q = 1 | S = 0 | Stoichiometry = C13H16F3O2Pd(1+) | MND = 6
C         4.85490419329615   10.93996950650162    0.05232892796196
H         4.29577823414193   10.03908123928924   -0.21256979433325
C         4.94537226740774   11.25212692683562    1.39138510208388
H         4.42042569910480   10.60288337586768    2.09690797122139
C         5.40837056502418   12.55655942973399    1.99078940149063
H         5.74332682346672   12.35024944389210    3.01458796230993
H         4.55437483807902   13.23550632430012    2.07082353116301
C         6.55509105082631   13.24279341638234    1.22008615165587
H         6.17459674150334   13.82656488327414    0.38393573698741
H         7.04593697268576   13.94126894397624    1.89890784613145
C         7.58196861136939   12.24840932397625    0.72392921701355
H         8.51625715463387   12.22599077633588    1.29004346152142
C         7.59233594697502   11.67939806577541   -0.53126457484878
H         8.54142910146282   11.27873178433950   -0.89628820765267
C         6.54643470481173   11.83710566278147   -1.60746188205569
H         6.77306884459357   12.73016723899902   -2.19729046745167
H         6.63723707191188   10.98013675851330   -2.28569248541375
C         5.09633274979904   11.90675674152013   -1.08592214120973
H         4.42993364110901   11.64784870246445   -1.90959246445635
H         4.83730934512575   12.91650577710164   -0.77248995165181
C         6.59115508461450    7.48571607376406    1.82599886406323
C         7.95062865431683    7.27280053700199    1.82898882920616
H         8.32182765087004    6.31551256329430    2.15479835626536
C         8.89817613736175    8.24308702861788    1.42701758205245
C         5.66664146935502    6.34092492345140    2.29392695397448
C        10.34229660708564    7.85209080493448    1.48636307485363
H        10.97124300279510    8.67428127470104    1.15592216883953
H        10.51506644923847    6.98212470263158    0.85577835465850
H        10.60691589053857    7.57558649666884    2.50514581685386
O         5.93006613815962    8.51563733426702    1.48777355467304
O         8.63236416789565    9.40649209781389    1.02439672823090
F         6.32726345102988    5.25496624851739    2.68571203109978
F         4.84379312373277    5.98362384368872    1.30534994385254
F         4.91452228240504    6.75262445215657    3.31752524313090
Pd        6.77305533327237   10.22287729663034    0.83724915777867

