58
CSD_code = GOHCEL | q = 1 | S = 0 | Stoichiometry = C16H27N12O2Pt(1+) | MND = 4
Pt        7.79847705877833    7.50266948717179   22.25600235611143
N         8.71126342618931    6.15044757100579   20.94539568742213
H         9.53130928740058    5.70297083966706   21.36033629369441
H         7.92871329446018    5.47068743108290   20.98489745212705
N         6.69317992832943    8.77662115454229   23.50003641692927
H         5.83250182861716    8.63844752113281   22.92035209745422
H         6.50903706792936    8.36359341003851   24.41486889214181
C         8.98931924946489    6.45956129287241   19.53717815660778
H         8.09536306732337    6.87139054031993   19.07187953975583
H         9.27225071726291    5.55514702138243   18.99297871016665
H         9.80092783743664    7.18244131437985   19.45612773937901
C         6.97956139056410   10.20318230572619   23.67531046805314
H         7.91307391598244   10.33672585148800   24.22312483946098
H         6.17735061425491   10.69801950337697   24.22836300573221
H         7.06997260216795   10.68808462746674   22.70515843005041
N         4.44993776096416    8.98559677251810   19.65218459438926
C         4.73832112163726    9.82125324289683   18.65695121472370
N         3.72286337225740   10.10875900294632   17.81738982531727
H         3.84668205083559   10.84258280579015   17.14446888372720
H         2.80276255539727    9.79934926522368   18.07120458517477
N         5.91725867705464   10.40543987160506   18.37095167037391
C         6.87511265331721   10.01734297296098   19.20099228014827
C         6.70901992447575    9.12028622528071   20.25140928101442
C         5.39171857129641    8.58502484480612   20.51370683406979
O         5.16924513027218    7.84152844739058   21.50247578076149
N         7.90969303029562    8.95491805885461   20.88976034687538
C         8.77699321334454    9.72077130207346   20.25689822766504
H         9.81180591974005    9.83603067202636   20.51656200770372
N         8.19612217296699   10.39509574476975   19.23378071559891
C         8.83619732341914   11.27246857209085   18.28652146916616
H         8.06497249766720   11.95053660132400   17.91569370571044
H         9.61043013801851   11.84616072110813   18.80303401311969
C         9.43512424996721   10.48619689116809   17.12418982444970
H        10.20475253407665    9.80167176418990   17.47494555828917
H         9.87883582267484   11.17089399608908   16.40786716160888
H         8.65693369336299    9.91567799613146   16.62390952494937
N         7.45155149801191    5.96545673625471   23.62056720313220
C         7.66240541330994    6.12067528237868   24.94163443044356
N         8.52244128603082    7.09408935119154   25.30736364656682
H         8.82226812782533    7.11852267396499   26.26663547593771
H         9.10806464227466    7.49826944160537   24.58809442997383
N         7.08500403512439    5.43233149535006   25.92446458785456
C         6.18757146036059    4.55316994366290   25.48868222156466
C         5.90027609738390    4.28724544401160   24.15297503846572
C         6.62114649202834    4.99045630872053   23.12058663243880
O         6.56243457103117    4.73160321278817   21.92225054187216
N         4.92576912075834    3.32688793671986   24.12754715831040
C         4.32728006519170    2.79407397994631   22.93147183190249
H         4.49058991101615    1.71802256341994   22.87065704464412
H         4.79196303103368    3.28351572032410   22.07577002488506
H         3.25563776498770    2.99253358565605   22.92250705737894
C         4.63293469194670    3.01888128601019   25.38347783854908
H         3.89909983983381    2.29679389500036   25.68486592946629
N         5.38158617064391    3.73764359356046   26.23684240692128
C         5.35810823317943    3.68931895508129   27.67420555801844
H         5.58611110364174    2.68336297756709   28.02668444714686
H         4.37946314633116    3.98640119334020   28.05191286295483
H         6.11410959879244    4.38336878047261   28.03579604164515

