122
CSD_code = GOHDEM | q = 0 | S = 0 | Stoichiometry = C63H53NOP3Re | MND = 7
Re        3.82387146093302    1.33729361793663    1.50468310860229
P         4.34416880524395   -0.99317278700255    1.91311065329873
P         5.66445831052067    2.19207688995009    3.01731946068512
P         3.36630692198666    3.52181169589221    0.59911302803211
O         5.47578237389511    1.27250120454802   -0.05339470397143
N         3.44214513899740    0.64591298314471   -0.59970510300926
C         4.71800979586371    0.81324453809527   -0.95847500013091
C         5.16929296297389    0.48234331498303   -2.27249606364405
C         4.27443777264162    0.00047861507815   -3.16669343826805
C         2.91337324958827   -0.15424884032665   -2.80116484011254
C         1.94186080745868   -0.62337850249658   -3.69700374121124
C         0.63123356276105   -0.73863228221809   -3.31584210068910
C         0.25019905953726   -0.38610822747471   -2.01691265353883
C         1.17541978926976    0.06567260748982   -1.11467145743722
C         2.52779997953325    0.19303230971440   -1.48075446593143
C         3.78429047578737   -2.03039688945114    0.51338253673094
C         4.62279340027635   -2.48683477032289   -0.49565061751889
C         4.10045409084840   -3.19021549093101   -1.56729737059415
C         2.74383870657135   -3.45417535205802   -1.63653913355360
C         1.90345068417214   -3.00551164321467   -0.63071634491864
C         2.41674562988878   -2.28622071852417    0.43027679824555
C         6.06174481043070   -1.60763368716636    2.11063041536517
C         7.03425584680745   -1.11115306281656    1.24673006961638
C         8.35075702717497   -1.52147775497878    1.34721454746157
C         8.71721206393633   -2.43531505773640    2.31959965223931
C         7.75931939204076   -2.92853470251546    3.19019346223437
C         6.44207050915597   -2.51807717120779    3.09282189084178
C         3.50659628669282   -1.87495608115856    3.27719073320066
C         3.02945396123455   -1.16435038799458    4.36948392481851
C         2.44276818870111   -1.82690245325054    5.43351584890003
C         2.31965462569132   -3.20520930176309    5.41116147568271
C         2.78096779469259   -3.92057743346425    4.31696646083321
C         3.37400027136622   -3.26230243692985    3.25640391664233
C         5.56930208834928    1.33788344087634    4.64161478347986
C         6.32085350194115    0.18307454599137    4.83872519510099
C         6.19407661146948   -0.54955934390891    6.00344692346124
C         5.31783332668867   -0.13710170126618    6.99255527844283
C         4.57443673927915    1.01626040084632    6.80924624808468
C         4.69163730229148    1.74660599223962    5.64003450550087
C         5.47636628809539    3.93634105080307    3.57011147606790
C         4.18403143552086    4.39290472211343    3.82137306086678
C         3.96416086921500    5.66966384710604    4.30172948675102
C         5.03427500977149    6.52026673669407    4.52217932295451
C         6.31735391703639    6.08933695270489    4.23558930317295
C         6.54112917070060    4.80831705636464    3.76122528790056
C         7.47623362815072    2.09931526404423    2.76030223138208
C         8.32517590384025    2.24080277348892    3.86036104639925
C         9.69569626750717    2.19892637368574    3.69657757765129
C        10.24486282969626    2.02009629408558    2.43608906199116
C         9.41132252099077    1.88242372478731    1.34210257615288
C         8.03628650319999    1.92087414091917    1.50378015576167
C         1.87004721571691    4.45219188412755    1.08120789714891
C         1.07739073278034    4.02031277301466    2.13593811690316
C        -0.05367535413899    4.73323228935710    2.49605372470175
C        -0.40498947577828    5.87776491053790    1.80117831894789
C         0.36763363538786    6.29911549508041    0.73004085613269
C         1.49632911137070    5.58904080850859    0.36735870626307
C         4.67961469945824    4.79328336538503    0.70045741484159
C         5.96417300196278    4.37496599115500    0.36414071541995
C         7.03432937321775    5.24686882992215    0.41525938658196
C         6.83200039190399    6.55710244960487    0.81337495227426
C         5.56219509749766    6.97619674953162    1.17278532841493
C         4.49032843128375    6.10295089796419    1.12495350943374
C         3.05645599430087    3.49159680043719   -1.20634341722764
C         1.77926410241609    3.11026064052465   -1.61580779329805
C         1.48294026701812    2.98000060140011   -2.95782744147879
C         2.46157279827512    3.21500917199162   -3.91000888403388
C         3.73210636742299    3.59065173886335   -3.51083216226131
C         4.03193681463394    3.72924063180786   -2.16635118924795
H         2.24776154189806    0.96310266471035    1.53617256638085
H         3.21068406926838    1.61566167895681    2.99485374266407
H         6.21392908624066    0.62615380532422   -2.50808078336488
H         4.57884083249065   -0.26632565770160   -4.17017637066034
H         2.25053269897133   -0.88779681021977   -4.69931122327376
H        -0.11074477713983   -1.09753298893447   -4.01431829328548
H        -0.78682754827828   -0.47345970324852   -1.72542785617542
H         0.89285536244447    0.33965380954201   -0.10890847379245
H         5.68678151659328   -2.29853405514243   -0.45071761904526
H         4.76001584946567   -3.53373783972705   -2.35175987343791
H         2.34149668905574   -4.00375311146235   -2.47471766922191
H         0.84329628508170   -3.20526489943345   -0.68273315242610
H         1.76564581770156   -1.90954394523139    1.20787237233361
H         6.75747838064803   -0.38297100823445    0.49969971619423
H         9.09267116942596   -1.12418867932946    0.66921880814845
H         9.74506329670319   -2.75724637945708    2.40342541017922
H         8.04093958108522   -3.63740816624961    3.95609247945005
H         5.71453509632531   -2.89765023204929    3.79396979584619
H         3.11391079307135   -0.08737825571894    4.36729114683171
H         2.08016582292686   -1.26369401710731    6.28077948488831
H         1.86126769883035   -3.72472688162215    6.24016010920819
H         2.68100062854977   -4.99644767025884    4.29235362080474
H         3.73564420472572   -3.82655636934126    2.40685462980104
H         7.02125194565468   -0.13580060143094    4.08079058638000
H         6.78465236113293   -1.44423222112453    6.13756653690419
H         5.21824889593699   -0.70968278070769    7.90283971628549
H         3.89497154710272    1.34973921311583    7.58028850241673
H         4.10164534450310    2.64132669612594    5.50820722761507
H         3.34668405510754    3.74086653380175    3.61238627004177
H         2.95410027889339    6.00137672499278    4.49521744643613
H         4.86868027653182    7.51870481961748    4.89948811934341
H         7.15621941671390    6.75486240713359    4.38036122095588
H         7.55158654600954    4.50321080839533    3.53407203542726
H         7.90812498253412    2.38237726269765    4.84800379029499
H        10.34034117248775    2.30913017983060    4.55690221148741
H        11.31768088078778    1.98823727212788    2.31223623737701
H         9.83175294919414    1.74426218698252    0.35570493933339
H         7.39849780466818    1.79610405464778    0.64549865747897
H         1.34508355760930    3.10690550516748    2.64994120865876
H        -0.66538877657679    4.39104813182524    3.31814378226198
H        -1.28591395024161    6.43615530930259    2.08294603837521
H         0.08634938071187    7.18221808593523    0.17418978448386
H         2.08733450549119    5.90996922767563   -0.48062757580304
H         6.11582282053758    3.34837720723427    0.06530771276932
H         8.02497675944377    4.90359884024057    0.15083952224507
H         7.66254199699466    7.24681514028970    0.85467549599780
H         5.40370652389020    7.99385706071264    1.49994379232997
H         3.51233252484342    6.44366635564675    1.42954740226502
H         1.02400002850243    2.91056757512637   -0.86776622340099
H         0.49086211726977    2.67969876617009   -3.26176270836381
H         2.23445965935569    3.10304502385972   -4.96006341648218
H         4.49908486901149    3.77563568013224   -4.24981631137034
H         5.02774455467262    4.03000320383414   -1.87185707932798

