112
CSD_code = GOHDIQ | q = 0 | S = 0 | Stoichiometry = C57H49NOP3Re | MND = 7
Re        8.90375841040917   -3.94390186832490   -4.88247703857813
P         8.83229684475270   -1.66135316739349   -4.14099070846344
P         7.52243966827488   -4.48038447403967   -2.94859352761169
P         9.55845873419078   -6.20876965561015   -5.34408762232534
O        10.50746673225554   -4.06549068107270   -3.33628294357464
N        11.02521977663217   -3.48001481937648   -5.39205867258118
C        11.42443047973702   -3.72584160212276   -4.13900708180372
C        12.79943372820614   -3.60739626296132   -3.76600375484487
C        13.70215839876154   -3.23906962958995   -4.70580228687005
C        13.28190245546824   -2.96700983840138   -6.03234413422858
C        14.17487724797906   -2.56725790541319   -7.03753456234682
C        13.73113798390031   -2.29720587026557   -8.30467103462172
C        12.37087098246472   -2.41946026624817   -8.60657238596087
C        11.47375256031589   -2.81234626162950   -7.65022490075909
C        11.90347103993918   -3.09692079512094   -6.34129553499276
C         8.69156560690614   -1.36901871643320   -2.34032446088981
C         9.68760571929458   -1.82014086007696   -1.47505044805623
C         9.59834887616360   -1.58911912707549   -0.11526266312150
C         8.49656273863751   -0.93542346010351    0.40814331034947
C         7.47301625321040   -0.53790923187843   -0.43516395561438
C         7.56517993739503   -0.75395671738528   -1.79797970378907
C         7.56087080798363   -0.51202168296760   -4.76854975874981
C         6.45075426238717   -0.99955380886969   -5.44389484979553
C         5.48224766577012   -0.12623870018162   -5.90920033984761
C         5.61990127385795    1.23599350297027   -5.70465199179389
C         6.73032014252480    1.72741450815122   -5.03489424226316
C         7.69798035677609    0.85933590502055   -4.56757348419745
C        10.30777789998505   -0.70071772571122   -4.63015310973562
C        11.35046256854395   -0.31951554513180   -3.79703512433346
C        12.45535083586490    0.32821824866513   -4.32473174255195
C        12.52472886522678    0.60898837252929   -5.67752316872145
C        11.47806821656495    0.24707324848243   -6.51074475950339
C        10.38149240826594   -0.41085428040284   -5.99247125381785
C         6.49924345229073   -5.99028459079303   -2.99155414806113
C         6.70629251930583   -7.06195564754877   -2.13296332781571
C         5.92368964425097   -8.19833425468244   -2.24459949462926
C         4.94360468498326   -8.27916263807417   -3.21794881010958
C         4.73383831785703   -7.21172249033490   -4.07710604583814
C         5.50465781121855   -6.07226345165268   -3.96288106265956
C         8.02516846726573   -4.47185848725876   -1.20711709854505
C         7.16302939375775   -3.93764482594092   -0.25436804034041
C         7.49996009737394   -3.98411134853226    1.08463192549102
C         8.69377132984675   -4.56402410328311    1.48305271268231
C         9.55188062651502   -5.09922600099589    0.53764315549967
C         9.21897568204967   -5.05567784904540   -0.80407399369462
C        11.07232484793250   -6.30964065281183   -6.36988424773679
C        10.89994660879989   -5.84000905539178   -7.67140207680779
C        11.96080412317788   -5.80842710866625   -8.55303939319960
C        13.21473594402556   -6.23117812731588   -8.14137155859557
C        13.38958692909068   -6.70955289055785   -6.85562733158350
C        12.32348813829778   -6.75945853773135   -5.97232683108650
C         8.52967414204010   -7.31857288780989   -6.36617190584258
C         9.03696505833575   -8.55437581059264   -6.76011579645615
C         8.27097638289605   -9.40281044859883   -7.53500323303859
C         6.99464925446506   -9.02570719805064   -7.92477401145164
C         6.49344963747184   -7.79218867072679   -7.54723847498339
C         7.26059072866228   -6.93743116658822   -6.77413714558194
C         9.91089273735803   -7.30475991271451   -3.92381526419319
C        10.98264736703346   -7.04544924424900   -3.07012304102487
C        11.22746850988763   -7.85810994493403   -1.97730371528193
C        10.39671228859069   -8.93209555001393   -1.70854530054653
C         9.30994271366671   -9.17714796088317   -2.53079248948105
C         9.06119125713337   -8.36700703736421   -3.62332107823140
H         6.45807156324493   -3.58193929356417   -2.81202749020828
H         7.34552204482734   -4.09220306667956   -5.38339651707503
H         8.78382832807801   -3.54313017536478   -6.44817327844314
H        13.07228801099226   -3.81600901620535   -2.74091595985981
H        14.75155934996309   -3.14190230396053   -4.46024181831187
H        15.22303827249610   -2.47385422943844   -6.78779341498040
H        14.42596934222784   -1.98759262692566   -9.07165992897487
H        12.02751150554254   -2.20010628541866   -9.60746064552571
H        10.42204314783059   -2.90801452409355   -7.87278511228264
H        10.52589035429237   -2.38075653281772   -1.86077692687511
H        10.38781122666769   -1.92988101463678    0.53953659505684
H         8.42915817541131   -0.75126227386117    1.47039781115577
H         6.59623198172757   -0.05272983379187   -0.03011268755279
H         6.75887599424173   -0.43808518909024   -2.44461588030792
H         6.37148355246177   -2.06658332403338   -5.60703170312534
H         4.61951040663190   -0.50947805463064   -6.43426322056970
H         4.86509075935893    1.91825306808749   -6.06782620816117
H         6.84007318915526    2.79081637541218   -4.87746932680477
H         8.56349464263155    1.24110855221375   -4.04183373453280
H        11.30714878212035   -0.51342043503866   -2.73488354633387
H        13.26682202339263    0.61395265066396   -3.67019528158335
H        13.39239987796047    1.10859871412774   -6.08259143194612
H        11.52628107890693    0.46585983210320   -7.56717098316831
H         9.56637585840635   -0.72044456077590   -6.63397904865088
H         7.47440523874559   -7.00851941752340   -1.37375203256750
H         6.08388357861738   -9.02528293836335   -1.56829421893711
H         4.34091060351882   -9.17116713122730   -3.30600819131315
H         3.96474988120755   -7.26969361823876   -4.83295684580770
H         5.34569510641672   -5.22887784906614   -4.62157632521941
H         6.23208285585517   -3.48406587323596   -0.56715725365777
H         6.82870448862447   -3.56747784631006    1.82163265594995
H         8.95411521145486   -4.59733422902203    2.53122918051803
H        10.48268213347432   -5.55392330304751    0.84624727207576
H         9.88815706696362   -5.46241405206026   -1.54611338519832
H         9.91822439380247   -5.49307123526959   -7.96842944985010
H        11.81605932838119   -5.44400442125409   -9.55922969094834
H        14.05239017505152   -6.19038430167774   -8.82189537391373
H        14.36319847491371   -7.05048404496498   -6.53252582575433
H        12.48044327931494   -7.16191190292911   -4.98223877155013
H        10.03266496797384   -8.84809366412931   -6.45392423302154
H         8.66814948073608  -10.36106437065452   -7.83790421839814
H         6.39712868521053   -9.69364449878396   -8.52811825150158
H         5.50367197334432   -7.49261707481862   -7.85937116903161
H         6.89766383771539   -5.96107451448988   -6.48647667413316
H        11.62493130868328   -6.19500022625423   -3.24762386493416
H        12.06895453595755   -7.64851812069795   -1.33126559894302
H        10.59132897491234   -9.56896593208740   -0.85781163492113
H         8.64805643158366  -10.00479895064565   -2.32039958738461
H         8.20260034458694   -8.56244987393946   -4.24938171379140

