101
CSD_code = GOHDAI | q = 0 | S = 0 | Stoichiometry = C48H47NOP3Re | MND = 7
Re        1.95321119650008    0.63985921984434    4.35872928032990
P         2.56723728709405   -1.66349113345257    4.01522922432253
P         0.85838848648148    2.78487099628145    4.35132071902643
P         3.86494223903626    1.45080323209540    3.07137536894376
O         1.08314364812379    0.46167883893166    2.29057321630946
N        -0.11809311190669   -0.13625539353448    4.03415320312891
C        -0.01927609978391    0.00042616835754    2.70774916141193
C        -1.10045361417311   -0.36155052159129    1.84494765109214
C        -2.24048048922725   -0.84487221869742    2.39250636111478
C        -2.35274999541237   -0.98538450615395    3.79882042074844
C        -3.51272931719165   -1.47529122369553    4.41639357357539
C        -3.58612553637893   -1.59596224744161    5.77867274972508
C        -2.49341469135355   -1.22711794779869    6.56994556594378
C        -1.34639285338836   -0.74542086261524    5.99880239366504
C        -1.24467812011110   -0.61179327379558    4.60200880432313
C         4.45071365506228    3.15643841903131    3.41738327416313
C         5.45051470979322    0.55524925086025    3.30873052243458
C         3.75381792010830    1.48301783082592    1.25000109403589
C         3.62239335041738   -2.52949330767401    5.22984075061834
C         4.35343816499233   -1.80677337757351    6.16188439877968
C         5.15260294323568   -2.46409163418453    7.08196968395260
C         5.22336461220443   -3.84658957910119    7.07859370390050
C         4.48949715312053   -4.57391182209701    6.15388052975491
C         3.69228735965495   -3.92115251376852    5.23354760866191
C         1.12423573513029   -2.78560557958534    4.10193603577601
C         0.62237407950884   -3.01120484715103    5.38304119284544
C        -0.49911514872291   -3.79418933349690    5.56809508673262
C        -1.14879996649286   -4.34365522850242    4.47462734529183
C        -0.65915995797509   -4.11857869767706    3.20045210407703
C         0.47592156984529   -3.34845228095761    3.01082249873908
C         3.35580426401937   -2.18648724726259    2.44181359552555
C         2.73961863006830   -1.87109037859582    1.23160934085533
C         3.31521154157302   -2.23180764807712    0.02625266379618
C         4.52904414707786   -2.89691493540608    0.00693482085032
C         5.16843705448559   -3.18296560943568    1.20143710262310
C         4.59183271623635   -2.82944499726980    2.40829725570012
C        -0.96317895600741    2.63210450267578    4.43448815269553
C        -1.48485408917044    2.30359093364610    5.68505718829521
C        -2.84026877212237    2.09783590667910    5.84623684661716
C        -3.69029598265680    2.19261093444212    4.75626725994313
C        -3.17784808327620    2.51110177674558    3.51120510892809
C        -1.82148410151955    2.73640006924344    3.34790771462694
C         1.08352573924057    3.94377548611001    5.74542913050857
C         2.15187054967722    3.78438549794406    6.61673779805520
C         2.33123538047833    4.66675025019009    7.66857222785365
C         1.44282774859892    5.71134249571285    7.85831775749609
C         0.37028659163244    5.87181312912656    6.99438496591717
C         0.18972616702351    4.99448100931032    5.94237026975297
C         1.06943277570204    3.91897697996625    2.92371565905922
C         0.84440973416252    3.43510403188545    1.63589544990826
C         1.01031371472958    4.25185623079418    0.53176247674553
C         1.42197205859504    5.56363366886291    0.69345572847937
C         1.68240188042290    6.04473331557226    1.96559464553252
C         1.51304140920824    5.23152009799168    3.07206793069088
H         1.47205232051792    0.33985861844132    5.87827894111838
H         3.14360370119927    1.02516199183895    5.42358524978529
H        -0.97061218449113   -0.23606761335115    0.77905543911431
H        -3.07944338728580   -1.12885391557613    1.77063473306269
H        -4.34988341410497   -1.75554476884595    3.79137629685729
H        -4.48410439152559   -1.97428640988868    6.24532730913446
H        -2.55869560213051   -1.32469405702930    7.64428672877153
H        -0.49766695345314   -0.45662380842877    6.60024219097894
H         5.34442043661838    3.37033306438716    2.83220850035942
H         4.67496322987002    3.23687361402686    4.47967518723572
H         3.67153461832096    3.87431827388241    3.17040399277938
H         6.22699181045686    0.99736914054904    2.68533393556868
H         5.32588124316176   -0.49386811575748    3.04884896991809
H         5.73394445792042    0.62397157586384    4.35742931806225
H         4.69330462930385    1.85051687726808    0.83568570039879
H         2.93666734693071    2.13653258980234    0.95316251162744
H         3.55566616545769    0.47725096387913    0.88555004120076
H         4.26590797128887   -0.72866076105229    6.16257150673624
H         5.71767168859127   -1.89603377407441    7.80656485696397
H         5.84452769799862   -4.36077738689917    7.79758902110554
H         4.53920387918039   -5.65343369835716    6.15203856173527
H         3.12056053027668   -4.49030295599681    4.51208770348107
H         1.12475890717680   -2.55657805100170    6.22685154665646
H        -0.87678673182655   -3.96686167156323    6.56506427454629
H        -2.03539528022566   -4.94422691452230    4.61527876209351
H        -1.16139126321579   -4.54594545832432    2.34389347159278
H         0.85138555754531   -3.19863008325073    2.00841329127944
H         1.81520847442241   -1.31243791803469    1.22915604612657
H         2.81633977770426   -1.98692174965427   -0.90138152054860
H         4.97899144697907   -3.18055884926746   -0.93326740841135
H         6.12518317275060   -3.68552539658280    1.19537240225010
H         5.10935810405641   -3.05788934499732    3.32900622973314
H        -0.80831222546458    2.20798126039330    6.52407205222209
H        -3.23477649752532    1.84839436501006    6.82018557998789
H        -4.74897943636416    2.01590392371883    4.87663724100574
H        -3.83653918751811    2.58630756797705    2.65736357781171
H        -1.44271503557495    2.99909947197563    2.37019313683761
H         2.82106670314988    2.94827788276818    6.46453542614270
H         3.16378020887221    4.53617346519130    8.34446707205207
H         1.57997071301460    6.39916059621881    8.68008481128661
H        -0.32707159075441    6.68400018476043    7.14248054595546
H        -0.64723580012799    5.12283359327895    5.26840941532569
H         0.56445680656912    2.40110009929774    1.49424687102577
H         0.82232887167769    3.86116176247804   -0.45898524451020
H         1.55026666862451    6.20344266054902   -0.16739160284122
H         2.02229673849892    7.06181801392861    2.09964180592919
H         1.73173777699052    5.62216921829263    4.05519090666287

