82
CSD_code = GOHFUH | q = 0 | S = 0 | Stoichiometry = C42H26F6IrN4PS2 | MND = 6
C        -0.90194161693488   -0.12934243263287    2.62587484313028
C         0.36144696235263    0.68234811285754    2.56786542195170
C         1.26413351144125    0.41944592056961    1.54071448376907
H         1.04760989744915   -0.35435773723807    0.82036334753553
C         2.43081337563800    1.14739821063544    1.46101287166739
H         3.14938162874020    0.90436009572494    0.69528831163897
C         2.69801618488165    2.14834089455037    2.39907077802680
C         0.64173805470330    1.62813474593731    3.54178389280880
H        -0.06158096574268    1.77942294162173    4.34743711896660
C         3.90761322948834    2.95170092413736    2.43647086031615
C         4.87259176120163    3.12495731393618    1.40622520906079
C         4.66023511188225    2.88401224463896    0.03524582273253
H         3.67239079925842    2.62908102033569   -0.31275005250235
C         5.68283751028169    3.05126460559660   -0.86091578688916
H         5.50812771776176    2.87733052124457   -1.91213089171205
C         6.95494387196182    3.45932656086295   -0.43447950473452
H         7.74917452820220    3.56134365692574   -1.15878684405838
C         7.17661711729019    3.76824563937684    0.88032918044779
H         8.12506093577696    4.14184252012159    1.23087800061926
C         6.13425973739599    3.64504405151775    1.81471413502702
C         5.32891669818001    4.05822952251221    3.88662295894198
H         5.48337231694944    4.46292756817893    4.87882659317653
C         5.13433804777990   -0.24595102814682    7.41226721596830
C         4.00415551421695    0.74301463880450    7.36353978224351
C         3.03031894689197    0.72204559433597    8.35666949366071
H         3.08906297331228   -0.00048101180357    9.15570398243276
C         1.99413391811452    1.62969470838824    8.30514873707224
H         1.21300773189077    1.57462582927295    9.04580465628599
C         1.93000991542464    2.56491340312744    7.26974142833363
C         2.86005279581043    2.52273405209063    6.20246543198777
C         3.90666576469184    1.61007287628047    6.28478050168697
H         4.65486287296239    1.55978909971949    5.50706775768299
C         0.90060268887431    3.58003717151979    7.11861163452862
C         0.03439524573529    4.08131784115469    8.12904355621449
C         0.20300293367096    3.90725827797144    9.51726837562298
H         1.09687653804808    3.43568181282453    9.89059100216525
C        -0.72593836813096    4.40250338018919   10.39355918302492
H        -0.58352178817741    4.27097323582461   11.45568918026319
C        -1.85511926899538    5.09581138678636    9.93386779974157
H        -2.58128692840274    5.45840364171405   10.64570986261106
C        -2.01069389889625    5.35068752301291    8.59840082390872
H        -2.83480764599017    5.93204196722263    8.21718928693395
C        -1.05723851899372    4.87862401039996    7.67950702993864
C        -0.23840718421688    4.86153985356545    5.56778256029135
H        -0.31412547337097    5.20400066253297    4.54339926171026
C         1.81937213403704    2.36572635520374    3.48844211522048
C         4.65171041447646    6.66785104971164    1.78599534496860
H         3.76607559222108    6.33716474986870    1.25933706616152
C         5.85608823630784    6.80899259446439    1.12141495666457
H         5.91349532172698    6.58913324509163    0.06523246542692
C         6.98301079426964    7.22215071904940    1.81193604186644
H         7.92381364399932    7.32450229565145    1.29202498145538
C         6.90905608945205    7.50154936940696    3.16726700544796
H         7.78950519375682    7.82092837277068    3.70415777053388
C         5.70801313046996    7.36604235842942    3.83633557109516
H         5.63584129599298    7.57192142512852    4.89589549991067
C         4.57910593373312    6.94873940812072    3.14289017128643
C         2.85704040442983    9.50152668884622    3.55263380430300
H         3.72753866609646    9.38008496855607    2.92227063891214
C         2.26554377814954   10.74344074202344    3.70223725215977
H         2.67874806610860   11.59770669815567    3.18621753459752
C         1.14831267179991   10.89146510991295    4.50748545890087
H         0.69127666876559   11.86350379166072    4.61913091894646
C         0.61413653509434    9.79671369692788    5.16896785974837
H        -0.25859576484111    9.91066159618425    5.79450013596772
C         1.20109872655494    8.55465640425130    5.02591619902616
H         0.79589939980180    7.69092489948671    5.53886136685837
C         2.32420772274880    8.40911791276745    4.22089218251291
F        -1.54860661964427   -0.15106928095530    1.44594665023320
F        -0.66081229513133   -1.41967629320697    2.93407391762211
F        -1.78305199069454    0.31302808118358    3.53237353963879
F         6.26409482399082    0.22330321769305    6.86041740543246
F         4.84194925666931   -1.38329075228472    6.74817597665869
F         5.44964090762043   -0.61938503966268    8.66263650010380
Ir        2.45061702834873    3.82324688280513    4.72107679538458
N         4.10516107320202    3.55985101925370    3.61981343708619
N         6.34587557265403    4.04443600207230    3.08879161316342
N         0.81485652024173    4.07392867994509    5.86980304886245
N        -1.18241590681250    5.21464472172245    6.37663711947271
P         3.00366977443926    6.72582676297414    4.04948235523542
S         1.74749295790221    5.61649422618011    2.94881044079453
S         3.34692906159296    5.96706149239328    5.87794956406170

