30
CSD_code = GOHJIW | q = 0 | S = 0 | Stoichiometry = C12H14FeO2Si | MND = 8
Fe       -2.38513546465657    4.17686312468693   11.48515317774098
Si        0.26454770885276    0.60163121595009    9.33983741850966
O        -3.54954254871079    4.69247280062885    8.89029984178659
O        -0.18562195484750    5.80299723683073   10.55831769982653
C        -3.13263311865789    4.49382609915051    9.93887142678402
C        -1.05968409564067    5.18879675601382   10.97303132034432
C        -2.74434015734079    4.88706596276117   13.62874773926375
H        -2.40455452355113    5.81088747253105   14.06788161287558
C        -3.99898890127166    4.66917004092219   13.02548815864017
H        -4.79263687378893    5.39253021359228   12.93556823952371
C        -4.10195276374245    3.28331762006646   12.71677860101189
H        -4.98802152261611    2.78513486410931   12.35794894107130
C        -2.91395703427730    2.65238082804337   13.14118802978862
H        -2.71751814249833    1.59337963104389   13.12247141775101
C        -2.05815748746701    3.64424304179603   13.67818116860498
H        -1.12524171660434    3.46036351068285   14.18554188494777
C        -1.35981839651179    2.90631061271135   10.54436162763794
C        -0.71793459190032    2.00182032149264   10.05830548280487
C        -0.93560247940174   -0.67046001563671    8.57582856548073
H        -0.40316836435341   -1.50909377703575    8.13584475660705
H        -1.53843253916454   -0.21627295818596    7.79546383991982
H        -1.61511900821063   -1.06743348549131    9.32393014481714
C         1.27269437417556   -0.21799974074423   10.73912955086450
H         1.87766713233529   -1.04018732510626   10.36727890713801
H         0.62141509312490   -0.61282689177200   11.51309034810130
H         1.94157212198053    0.49728571776934   11.20792340061704
C         1.43812101014040    1.28687605929652    8.00197786573934
H         0.87983377581917    1.76238364260614    7.20142739080849
H         2.04617989219150    0.50209206624990    7.56050403833762
H         2.11013057659335    2.03134535503755    8.41772740265551

