62
CSD_code = GOHQID | q = 1 | S = 0 | Stoichiometry = C28H29ClNP2Pd(1+) | MND = 4
Pd        9.33447344054632    4.33051712281129    4.64496805424589
Cl        7.17704137418654    3.75827163396678    4.78398389564225
P         9.52141638291628    3.70059048610551    2.48749261698715
P         9.45485889158967    5.16784213107778    6.75907451790724
N        11.41013919979126    4.83503577894750    4.51990673006375
H        11.89584456080105    3.97636371473327    4.80243070878330
C        11.34875882423445    3.98412779201727    2.21675620603716
H        11.88378367077848    3.06572423630134    2.48077026819986
H        11.56729214519845    4.22408110406118    1.17532263510547
C        11.77760560078903    5.13278732029611    3.12956528762020
H        12.85963318156597    5.30570670418640    3.04234445838596
H        11.25805143550592    6.05247887059442    2.83217123183264
C        11.76074269684662    5.89516833601267    5.47391438189422
H        11.26956738219815    6.82046894652863    5.14772521339062
H        12.84653757592928    6.06680235461648    5.47912810693294
C        11.27681643668060    5.52847303389061    6.87697486004835
H        11.47154993700909    6.34729918866174    7.57348654905500
H        11.79128993684526    4.62967970200345    7.23305898079591
C         9.32366141386501    1.90573823303385    2.35808902292925
C         8.97969971685054    1.22574927896835    1.19663095944124
H         8.79538554203541    1.76966783326131    0.28196262239884
C         8.85562638228012   -0.15286931753899    1.22757421076930
H         8.58667527850484   -0.68536843132069    0.32827392176488
C         9.06544967029152   -0.84769771496703    2.40751349857873
H         8.96194140635019   -1.92158165572649    2.42434651279166
C         9.38979480168131   -0.16847640069613    3.57301433256829
H         9.53124657168580   -0.71244847153851    4.49452994735052
C         9.51459558937334    1.20686619338391    3.55214015613818
H         9.73542814925807    1.75771875583295    4.47884581908780
C         8.66536304767591    4.50446987442947    1.11668194577818
C         7.53653769698780    5.25950504157737    1.42762438796294
H         7.21959583985902    5.33957000848605    2.46259307164893
C         6.82614781277879    5.88154173015346    0.41683401534496
H         5.94934105261919    6.46398511599763    0.65429624210633
C         7.23963987490096    5.75170884530510   -0.89938185109511
H         6.68390473295428    6.23362715460112   -1.68886119015070
C         8.36580562611914    5.00370981770778   -1.20898747255314
H         8.68374559653477    4.90560641564565   -2.23584562435769
C         9.08431758078345    4.37961765831247   -0.20595663001247
H         9.96348994210180    3.79927657831101   -0.45073788536290
C         8.89953628134429    4.59063833501846    8.37560024955309
C         9.71875848557730    4.50544209621023    9.49663432058309
H        10.76248228739102    4.77852806653651    9.44095915512091
C         9.18445844023117    4.06821164618227   10.69639780114252
H         9.81590668793886    4.00431869819022   11.56956156088985
C         7.84748827361304    3.71349881186491   10.77940898489637
H         7.44013241194265    3.37460166312570   11.71939045851646
C         7.03344302850415    3.78955875757611    9.65919386544157
H         5.99368283240605    3.50903137033812    9.72434717961650
C         7.55595195270188    4.22362220542915    8.45615059955300
H         6.93873564118129    4.27764256800477    7.56859678697092
C         8.75972054648221    6.84115687205196    6.59857388092453
C         8.58318352114783    7.66950974876058    7.70230006420755
H         8.83083838557608    7.30811049568682    8.69071836221074
C         8.07905834003308    8.94573295356449    7.52827672342848
H         7.93783269728154    9.58807095627882    8.38381822535378
C         7.75058987763594    9.39791161444662    6.25986948916779
H         7.35304800657714   10.39254329179363    6.13006069758597
C         7.92056854237893    8.57400794190538    5.15801440340751
H         7.65454047543603    8.92700877028686    4.17312713292269
C         8.42257678161763    7.29573786438259    5.32345235960958
H         8.53577050410496    6.63078027233358    4.45259298283266

