55
CSD_code = GOHQUS | q = 0 | S = 0 | Stoichiometry = C20H20Cl4F6I2O2Zr | MND = 6
I         3.43107847836746    6.89460421644326    6.61742538201526
Zr        6.18903183616188    8.03653296742410    5.05363051766015
Cl        4.41743987815431    7.02276955883935    3.79203147650613
Cl        5.91081826219434    9.99388223739325    3.70174821672810
F         1.29721021613056    4.81946414578269    6.30006775023030
F         0.65637582984863    6.23552473924276    7.79092848565282
F         2.01081307468736    4.65030435837234    8.32132801423521
O         4.81444468647324    8.56908421947614    6.37860254641821
C         3.57612510093419    9.34537415796231    8.24253064922373
C         3.17022154733808    8.02576155462658    8.39091361957458
C         2.66316226034089    7.53703720399237    9.57763459704515
H         2.39751478143816    6.50110251680764    9.69373039290726
C         2.51758981020961    8.41447444323035   10.64099743252859
H         2.12574903333889    8.04946764901871   11.57699797403253
C         2.87317196291565    9.74506535523957   10.50320626480055
H         2.74880845293139   10.42490571843204   11.33164282921403
C         3.40916743229127   10.21020288144750    9.31333537049702
H         3.70134442641115   11.24395894688374    9.22550219299935
C         4.19831682493121    9.73724871586334    6.90719873452273
C         5.27727181460463   10.81405051961453    7.06684489020365
H         6.01882725082206   10.50250628228326    7.80357740618811
H         4.83502059995284   11.75617395797885    7.37763323264315
H         5.77513578783955   10.97243571237257    6.10611704467475
C         3.10044126353279   10.20369645605252    5.93808870001331
H         3.53937683959364   10.36895754629273    4.95209225003239
H         2.64807241313546   11.12798380334256    6.28775040344579
H         2.32442464971804    9.44136144029339    5.85228454045559
C         1.71066379792225    5.52644759178209    7.35397224548012
I         8.94626437383739    9.17941478425529    3.48968688619260
Cl        7.96060568657890    9.04966745932753    6.31614984696858
Cl        6.46298401716688    6.07982140299461    6.40610614401373
F        11.07370669561998   11.26142039191108    3.80407034245024
F        11.71848696812360    9.84366886624736    2.31621995270550
F        10.36122081451087   11.42530576849515    1.78173477392744
O         7.56302750583128    7.50440409631123    3.72799668138595
C         8.80233062928680    6.72807925709697    1.86507675340102
C         9.20702468320888    8.04801279894519    1.71601270890414
C         9.71339208129858    8.53663684018545    0.52893077850524
H         9.97778922849477    9.57280629221565    0.41217745405055
C         9.85951182222712    7.65883959999751   -0.53405078273604
H        10.25071296135963    8.02379658028694   -1.47034910176646
C         9.50543375861544    6.32793113526604   -0.39545191720217
H         9.63047103042541    5.64776843211511   -1.22351775276195
C         8.97011273787125    5.86285254735716    0.79473875368615
H         8.67908930903926    4.82882644829836    0.88318568403419
C         8.18025175057157    6.33638985036950    3.20050952044190
C         7.10224536368100    5.25859012664525    3.04135952903856
H         6.36058963505198    5.56901747816440    2.30426177725801
H         7.54541898003642    4.31665889325990    2.73132859590263
H         6.60431968528750    5.10043519360518    4.00208513274848
C         9.27830099635459    5.87171281219749    4.17028030610893
H         8.83917831156189    5.70669275506337    5.15624269368969
H         9.73178175269853    4.94766304048293    3.82143529567624
H        10.05346283926776    6.63495074945166    4.25589995697135
C        10.66276806981833   10.55155750294509    2.75116682640768

