55
CSD_code = GOHRAZ | q = 0 | S = 0 | Stoichiometry = C20H20Cl4F6HfI2O2 | MND = 6
Hf        6.20305941736940    8.03422991468585    5.05726516878932
I         3.39436631195103    6.89340141472272    6.63070714184384
Cl        5.94710516214776    9.96877152463612    3.68595075391982
Cl        4.43879330447431    6.99667577892301    3.81477921367835
F         1.25479222426910    4.81442454700369    6.34155288916430
F         1.99838735133102    4.64738425177697    8.35157726185418
F         0.64043786637461    6.23499477502228    7.83851333079729
O         4.77723736236853    8.58428580896231    6.36659153647561
C         3.55990592825924    9.34954373119651    8.25405386169711
C         3.15812736655677    8.02959028024059    8.40468792006460
C         2.67223541889002    7.53474725842525    9.59757419423878
H         2.41294073137942    6.49728228365388    9.71460247057283
C         2.53997160051427    8.40808144060903   10.66588012762162
H         2.16432002866048    8.03841299652627   11.60666834952771
C         2.88879511335028    9.74030508737376   10.52645355634137
H         2.77452055171135   10.41744324662982   11.35860120578597
C         3.40606730064639   10.21017317015145    9.33040087623594
H         3.69500344357852   11.24468907776868    9.24126022568666
C         4.16406051290768    9.75269996990357    6.91484317166868
C         5.24230086386409   10.82935278448103    7.06967153404918
H         5.98436712943392   10.52460131334608    7.80650858333701
H         4.79961856104442   11.77305983837754    7.37381072575337
H         5.73905978720865   10.98302396668199    6.10977197736813
C         3.05233856061798   10.22829886887684    5.96774015281459
H         3.47689877376091   10.41984564828195    4.98216200523833
H         2.59602844435409   11.14009612451024    6.34332522759169
H         2.28325683512183    9.46107333752739    5.87359989645699
C         1.68452259530319    5.52099848621746    7.38756585059213
I         9.01114157874783    9.17568248971398    3.48209115561091
Cl        6.45908827853629    6.10014469136912    6.42809778987604
Cl        7.96773711018589    9.07216366385329    6.29920319889608
F        11.15169915942591   11.25576498963289    3.77229947443825
F        10.40714109274234   11.42155043636531    1.76253962192575
F        11.76569076571353    9.83457946630755    2.27574462602290
O         7.62898981683704    7.48454866912831    3.74784558970128
C         8.84665296978021    6.71942568862565    1.86009063558206
C         9.24841602844722    8.03931348694343    1.70919868964637
C         9.73434198851760    8.53411086172017    0.51637160809314
H         9.99344993394626    9.57161041326888    0.39925110633532
C         9.86672642380953    7.66067268819843   -0.55181180318016
H        10.24240696453008    8.03027129565811   -1.49261173754122
C         9.51803530580411    6.32843184988466   -0.41220831779987
H         9.63249483632424    5.65119036484699   -1.24424538440198
C         9.00069425220456    5.85867067377172    0.78386265308803
H         8.71188738652686    4.82413196093044    0.87313553026207
C         8.24243910213000    6.31638695740011    3.19937955073812
C         7.16431174405300    5.23961479430116    3.04452667534204
H         6.42226026439741    5.54426896501142    2.30763373369200
H         7.60710430078090    4.29594432267179    2.74042793215384
H         6.66749494614736    5.08591952817083    4.00439814570615
C         9.35408694307846    5.84079066042021    4.14657321823954
H         8.92943627740827    5.64915998791278    5.13210044948768
H         9.81055216661423    4.92906308513122    3.77100637808906
H        10.12306619634251    6.60810251065873    4.24082029763504
C        10.72163561953977   10.54849857159020    2.72685997320129

