28
CSD_code = GOHSUR | q = 0 | S = 0 | Stoichiometry = C12H9MnO5S | MND = 6
Mn        1.49392796400968    3.33448326045928   11.33618575831576
S         1.06237975821145    1.54855436263009   15.59189578780853
C         2.70162686198698    2.05318620741472   11.69205186093359
O         3.45789524120997    1.23789830133467   11.98307155004875
C         1.66053797945881    3.61800558200290    9.56800014987759
O         1.76692460707471    3.77987244907082    8.44224676597359
C         0.09973700224888    4.39876726616499   11.71545618662829
O        -0.80190115295731    5.01363469363108   12.05687843135526
C         2.66519674032564    4.63245892726588   11.69936193648443
O         3.42240149687856    5.47713588436293   11.89682621203081
C        -0.28226385142545    1.11217851157325   11.87111879450169
O         0.08901910399288    1.80548331549376   10.91414974105988
C         0.29252307974410    1.38474233021394   13.16394339955183
C         0.06759149502404    0.81028262578587   14.39878664111906
C         1.79047449259325    2.63601906269546   14.42451706682244
C         1.28299466160425    2.44902713563164   13.17659811286288
C        -1.29564934308909    0.03220075549367   11.63934179570083
H        -2.19019676518224    0.22624117136126   12.22762563407285
H        -0.89304528399743   -0.93311869424749   11.93853579983165
H        -1.55728024504188    0.00502232760304   10.58383414056657
C        -0.86114520628467   -0.28030078138362   14.79477900800527
H        -0.78670663201719   -0.45672331882173   15.86503477820517
H        -0.61877518237340   -1.20771821541469   14.27566096840350
H        -1.89276122893945   -0.01965073114036   14.55873379105977
C         2.84764913856526    3.57527392896322   14.88901628624878
H         2.81568857902287    3.68235235184137   15.97080425442007
H         2.71377770735011    4.55408350330132   14.43061041579817
H         3.83537898200717    3.20380778671243   14.60953473231364

