52
CSD_code = GOHVIL | q = 0 | S = 0 | Stoichiometry = C22H23I2N3OPd | MND = 4
Pd        7.18944758193769    3.25698046156207    4.34315382979502
I         5.95769809614326    1.08565775852151    5.09236694634908
I         8.34645716045075    5.44626613914828    3.53968623821054
N         5.42746251524298    4.77114229371954    6.15054296621078
N         4.53223803534016    4.46997129797626    4.18559420886614
C         3.58879174839016    5.13470338945621    4.94011524792935
O         6.40618762238805    7.01004610049759    7.97127481261189
H         5.84419962760732    7.38875228756794    7.28624503249878
C         5.62867752513564    4.25609264786294    4.92561800722050
N         8.78576682241610    2.19041153162410    3.76698752495584
C         4.16512372461070    5.32904447618576    6.20937516825995
C        10.99360753236486    0.71475521376422    3.02984992933160
H        11.85818910754246    0.13698314240433    2.74104261230437
C         2.30799055619998    5.58002769190924    4.65652303914748
H         1.86826510858827    5.44203567603451    3.68218999011680
C         8.85676768591971    1.65606494599467    2.55320751057745
H         8.00851821056163    1.83597128431577    1.89146152427009
C        10.91102828069565    1.27626783873250    4.29529220928455
H        11.70252043909995    1.14999214731976    5.01664404443825
C         6.39845124641322    4.67554447428070    7.21566295422308
H         7.11035950762263    3.87005753828617    6.94507024687406
H         5.88519492470174    4.40560068521630    8.14263762637364
C         9.94656625558816    0.90955663481528    2.14189461865656
H         9.97103812573597    0.49246342440577    1.14780062745478
C         3.92478173961711    5.05442541167304    1.88869154892328
C         3.16743037495524    7.12703392913562    0.20452990983021
H         2.86448120430742    7.92739206213286   -0.45383034029877
C         4.57443475636356    6.28169163952797    1.93879099839365
H         5.39035217382379    6.42474756003950    2.63217999204945
C         4.20123153689533    7.31721452309710    1.10401962443200
H         4.71944595315183    8.26227833358053    1.15399434874474
C         2.52534954732425    5.90369358486648    0.14317663855148
H         1.72346269490780    5.75815797945241   -0.56654408298310
C         3.47009968879789    5.96365743261838    7.22675070769089
H         3.90685841750692    6.11214612267300    8.20165416069900
C         4.37140106120780    3.96989260459381    2.83607498577246
H         3.66208561172609    3.13671685139919    2.85536924128486
H         5.36460649284770    3.57372497125404    2.52047413254058
C         2.19181810486554    6.40127672344180    6.93458313062136
H         1.61950180296630    6.89998190848960    7.70124965766925
C         9.78555710570483    2.01021044327829    4.62321506729791
H         9.67548399677669    2.47485069680314    5.60531405750570
C         7.18774857987371    5.98148111964220    7.42159263684289
H         7.98378175324031    5.78991050845108    8.14529709891595
H         7.64256158452277    6.29104415009931    6.47269486309537
C         2.88845947377972    4.85115126699796    0.97490538370453
C         2.16926769662246    3.53818567989585    0.86868629654889
H         2.86225193980417    2.73235781584712    0.62997371037089
H         1.41868285909833    3.58359986871107    0.08382576680382
H         1.66579176368937    3.28662526891166    1.80268462168236
C         1.62403045788840    6.21587230955507    5.67555739668834
H         0.62389418710286    6.57689015222384    5.49255153066825

