78
CSD_code = GOHWUW | q = 0 | S = 0 | Stoichiometry = C26H40B9NOZr | MND = 12
Zr        9.18624680853605    7.72748242999977    7.42488298736314
N         7.91431323765055    6.19363247665421    7.95436863115208
H         7.75689270279842    6.50629288415157    8.91883476480687
O        10.62121478381266    5.98821901239625    6.72010313737130
C         9.73622729214624   10.17894859722796    7.88456813172635
C        11.09968142784264    9.46932529124745    7.72967960157310
H        11.60485771928942    9.54143910733354    6.76248982285149
C         9.08294038794169   10.68753466264588    6.57607374416816
C        10.01719353773847   11.51156084241393    5.66284540756708
H         9.51428493765359   11.69560985007142    4.71413301458101
H        10.96232512919551   11.02054131701678    5.44717434220223
H        10.24245389645037   12.47205729999630    6.11948725900816
C         7.88908288948939   11.61170632772540    6.86675766523816
H         7.28318822156439   11.73706123656748    5.97096778349077
H         8.25245166094155   12.59053415585290    7.17331119015835
H         7.26678124968444   11.23367454469869    7.67071138151279
C         8.66706575877410    9.41775462377915    5.83176075522547
C         9.57797001959126    8.61088338689854    5.08885195370350
H        10.57478756544696    8.90618974663178    4.77252707065398
C         8.91619087654625    7.47893746201042    4.58123749713938
H         9.31309405034000    6.78722437786471    3.85063856901690
C         7.56211675490683    7.55352204528218    4.98262984025879
C         6.43951523480100    6.80677759725170    4.58768132215966
H         6.55935860332424    5.98679429870316    3.89447002948010
C         5.19902946512724    7.15953847031393    5.04629896288623
H         4.32680342371895    6.60595327424940    4.73582423449194
C         5.04791482400307    8.23603802044062    5.93264965468699
H         4.06055373822674    8.47199997230336    6.30135028494900
C         6.11227386985265    9.01192991223029    6.31709232414973
H         5.92530432698999    9.86462770968328    6.95310673261138
C         7.40740201971219    8.72683209222551    5.82091812766485
C        11.72943053807241    5.83261916203171    5.82902224363518
H        12.64931469179483    6.19679902992034    6.30999134099782
H        11.53139758295902    6.41000725884597    4.92376721745156
C        11.80682006245276    4.32813093013044    5.58584066707929
H        11.05278408833758    4.03419345632110    4.85630148950847
H        12.78439736999984    4.01526833737001    5.22877517862008
C        11.46707693910853    3.75877762446976    6.96865579897695
H        12.37262088909144    3.49480811479212    7.51221935034082
H        10.84727865624496    2.86882867180054    6.89087960944367
C        10.73044120009066    4.91169483615614    7.67734221195529
H         9.70768147179416    4.66723460647206    7.98559127930213
H        11.29988698857064    5.26245288699809    8.54875007223506
C         6.74000762062791    5.59065490250765    7.53699211258932
C         6.73442801162927    4.62522931988674    6.50741463206885
C         5.55446732336870    3.99384476552195    6.15486796807022
H         5.57357794018811    3.25358028316886    5.36621189996875
C         4.36207725252956    4.28401867758833    6.79003668043460
H         3.45022949689806    3.78326261339508    6.50153504021157
C         4.35624883545819    5.22446252881287    7.80452270028059
H         3.42946382363169    5.45988901609682    8.30955898905984
C         5.51469345401334    5.87368805185851    8.18736423102481
C         5.46592546244942    6.89022053549236    9.29642555198951
H         4.43431236321891    7.07293082597000    9.58631132054213
H         5.90789713826231    7.83775225480970    8.97575343108960
H         6.00490064559647    6.54266060235720   10.18142449743741
C         8.00668375890343    4.22740975451735    5.81126568033128
H         8.67632666291018    5.08248417568464    5.72491763237275
H         7.78592849720738    3.84204794326053    4.81762915143976
H         8.50355029980033    3.43275899090436    6.37083252147506
B        11.27209717414791    8.16163973709101    8.68226950345484
H        12.06776757462797    7.33126318132312    8.34118445146340
B         9.82246989218539    8.03827612860211    9.64572099526681
H         9.42973323474007    7.03871645662768   10.19526904623986
B         8.81467147016733    9.38249804247762    9.02859519564417
H         7.61314566753696    9.41901619107381    8.94685360809531
B        11.09555107690441   11.01025643201061    8.57283258101935
H        11.52210452910295   11.95597266007845    8.02076822185286
B        12.11602351047884    9.69323211861419    9.12028569621989
H        13.28042901242911    9.77307933300295    8.94742500660898
B        11.27004257795805    8.79987469742928   10.36745688891159
H        11.84815187523288    8.26233815712350   11.24535550203458
B         9.67237105460991    9.56192582721462   10.57495356685874
H         9.09522098261982    9.58285079809395   11.60432302745117
B         9.58480817798321   10.93501506334593    9.45456913980577
H         8.93144109684072   11.90630490346890    9.57358159372068
B        11.11193304844793   10.58458975105037   10.27162734815396
H        11.57277256460299   11.30151733846584   11.08370190331967

