57
CSD_code = GOHWOQ | q = -1 | S = 0 | Stoichiometry = C19H27B9ClZr(1-) | MND = 12
Zr        8.63311008314865   10.94000338987089    9.02285527433949
Cl        9.48964383374662   10.54139856780756    6.72167571932724
C         7.34018241942626    8.91127206427049    9.66390370922790
C         7.03250300630784    9.22804821935411    8.17370696668782
H         7.63053029496341    8.72690606391346    7.40984788437575
C         8.61110052787746    8.08547637441786    9.97904390254826
C         8.85398750978845    6.92886185564802    8.98424780340364
H         8.04551726012110    6.20270048907418    9.04555290905731
H         9.78472747033602    6.42402865173933    9.24182484266099
H         8.93001177092975    7.26264904784206    7.95210212206462
C         8.50262254570629    7.40295587216124   11.35625597389256
H         7.81115528884435    6.56317715381200   11.30127180420728
H         8.13233883036551    8.08294582446479   12.11373159744024
H         9.47849082588130    7.03169118158141   11.66632450448475
C         9.83084503247047    9.03558904160400    9.94728093689646
C        10.81856628965233    8.98228758680188    8.90616006668882
H        10.70719027827382    8.48878648923256    7.95157459493718
C        11.99546344633450    9.57382882387875    9.31496764267075
H        12.89028666933223    9.68170094293534    8.72442706902253
C        11.83940737558565    9.98652321628931   10.65437027955481
C        12.74173794788863   10.59276801784490   11.53118593011195
H        13.73266483811133   10.85764021932691   11.18384003176077
C        12.36365508802962   10.83504582909229   12.82943090973510
H        13.05277099624108   11.29699332226050   13.52499053545166
C        11.08268789293128   10.47778105581925   13.26490185306880
H        10.80730016140375   10.66364909202286   14.29534233731378
C        10.16622946122425    9.89488225412769   12.41774583738343
H         9.19611201914172    9.64560569067125   12.82112525192967
C        10.50325042973289    9.63845700128408   11.07814606251195
C         8.62043164281356   13.64830470148846    8.90360240697428
H         7.80672250844971   14.25647953415955    8.53111011045536
C         8.84562346727869   13.29649896746820   10.24777144750976
H         8.24201418137610   13.59622973003505   11.09364157010007
C        10.05704467796080   12.58489434605680   10.32031084368263
H        10.57850739809943   12.33511475614673   11.23395089257092
C        10.59001050934584   12.50687695445902    9.01030115997754
H        11.57172421565220   12.13476598241544    8.74039334935485
C         9.69869553902142   13.17297385240585    8.14404137406691
H         9.86171422679879   13.35904261144654    7.08982150070404
B         6.48227075388448   10.77336552944904    7.94875385959942
H         6.68269020714026   11.32330862478865    6.90024946845273
B         6.34109019063961   11.47056759619250    9.53347157419454
H         6.26400765459720   12.63814214960901    9.77590160789379
B         6.97683779104145   10.24956404195165   10.59412207534263
H         7.56663767290919   10.42969609181026   11.62035133389961
B         5.93491508608090    8.15557542076745    8.97904674152534
H         5.96720641666928    7.00501945910832    8.71952254847605
B         5.34883325743877    9.37909395920444    7.84396997612725
H         4.95055432367679    9.01380224810688    6.79196498461395
B         4.87328006963839   10.79319234977895    8.75718966960401
H         3.99128162202675   11.49758636549724    8.39628695894706
B         5.19869243885589   10.45800979704849   10.47057342612866
H         4.55902181468844   10.92292376632077   11.35350306789712
B         5.86079890531369    8.83986518052851   10.59419496298100
H         5.78027132516393    8.11586225022922   11.52338706293347
B         4.57203936102886    9.15240445492903    9.41937005278365
H         3.48509314861717    8.70058593944804    9.53636162045200

