61
CSD_code = GOHWIK | q = -1 | S = 0 | Stoichiometry = C21H29B9ClZr(1-) | MND = 12
Zr        8.95005809018533   18.87696107582132   17.33212773643793
Cl        8.86105853350448   16.46488952581687   17.69375783891093
C        10.33359880487605   20.61983205659768   18.54625444349571
B         9.97395914048288   20.98237032595640   16.95960450011967
H         8.98785103419727   21.62735638926057   16.71353090964930
C         9.28228301217912   20.89076367205663   19.65013125302176
C         9.77226088792904   20.59961078280737   21.08717311183743
H         8.92834291602855   20.66995169970799   21.77372591045648
H        10.51924891596099   21.33116183589670   21.38932132862797
H        10.21221626629550   19.61221148311080   21.20113536786920
C         8.85516220540108   22.36885349112978   19.66617246341475
H         7.94156783688694   22.48816590149108   20.24739775273396
H         8.69179082169864   22.74885254566208   18.66415687097372
H         9.63613537818919   22.97574167271735   20.12175014889091
C         8.09915392297949   19.97047693262996   19.34252253452265
C         6.88030959091611   20.23085285307193   18.63762953827203
C         6.31086109847861   21.35473323909613   18.00288021741321
H         6.84213485422526   22.29188841082749   17.92572314677696
C         5.04102002185809   21.28184896628238   17.48286811799474
H         4.61345320486536   22.15273986931847   17.00287933402753
C         4.27588581374941   20.10766501408630   17.56211746780604
H         3.27821387331119   20.09842965976370   17.14336187179228
C         4.78522803032217   18.98813821509734   18.16703877919095
H         4.20005504425794   18.08014524659459   18.23894452777114
C         6.07798751724498   19.02233446515253   18.70906518141340
C         6.80622709714005   18.05431515614056   19.42171287657222
H         6.46978699238745   17.05951743518141   19.66575489701189
C         8.02283236980385   18.62133204112220   19.79571007864211
H         8.73556607648524   18.11978568096173   20.44421321335350
C         7.24209840210239   18.68483190020993   15.86680156778358
H         6.71403968301968   17.78552401297607   16.22196617546180
H         6.55393234262835   19.54116804785681   15.84239616280595
C         7.84390395063251   18.45954793847590   14.55964802151208
C         7.87372590874380   19.46638813176680   13.57870841237059
H         7.42285574650026   20.42603164022599   13.80228140299704
C         8.47182044275222   19.25888574937612   12.35332121560529
H         8.48105080706672   20.05419357044202   11.61929916230642
C         9.05720196647616   18.03870423477417   12.05315034310542
H         9.52410167020274   17.87736133389858   11.09166057510188
C         9.04042532446983   17.02881933558206   13.00506596366892
H         9.49783435461537   16.07432049046864   12.78027076434121
C         8.44584579666598   17.22828308907992   14.23299411591305
H         8.44009179561387   16.42830103352221   14.96612929819726
B        10.67135040561478   19.70430479239775   15.96838558030032
H        10.34357724092516   19.41643521838578   14.85217591081068
B        11.35235596617984   18.58964650340494   17.13408317868369
H        11.47970797378226   17.40137505513452   17.05697894193289
C        11.10160266493804   19.26962742009250   18.60870741519366
H        10.98011000824384   18.65031118872252   19.50629796954337
B        11.29895757070759   21.86531015532183   17.78451759876677
H        11.17106005014598   22.99136307364966   18.11825366640145
B        11.54173205250893   21.25745163484011   16.15140041359126
H        11.65839870958324   22.00421067398126   15.23927503549263
B        12.43808490510641   19.72356347888630   16.26949367842066
H        13.20404909584955   19.36148555954512   15.44207935764704
B        12.71165723731090   19.39919853080678   17.97344957573173
H        13.56732017608839   18.75348758045099   18.47519987893691
B        12.02334150688899   20.72249316853931   18.90749441714417
H        12.35987365097340   20.96671488596488   20.01196196468384
B        12.82582160532193   21.06824873931266   17.39317626080339
H        13.85242163652297   21.65518618855273   17.35661455574055

