67
CSD_code = GOHYOS | q = 0 | S = 0 | Stoichiometry = C36H20F8P2Pd | MND = 4
Pd        3.33680421698774    6.10779619502675    6.17834164329005
P         3.62975724339376    6.67590065641117    8.36903227158309
F        -0.04356331235724    6.93568979205274    5.15218352638446
F        -1.84859882910920    8.15071250913153    6.82145818727245
F        -1.16540137390751    8.76317723227176    9.37384557340785
F         1.34349743009187    8.15050057378388   10.31219909584743
C         1.89285969500057    7.20847857975779    8.20425272698918
C         1.58032131792835    6.90214333466397    6.86552390619200
C         0.30667386560009    7.22775067912485    6.42660755402158
C        -0.61962072838863    7.84404441246094    7.26317522005318
C        -0.27138085028411    8.15730672060446    8.57575118250327
C         0.99837438696593    7.84283998342957    9.04782042726250
C         3.87294258773692    5.91784496700715    9.99051977848366
C         2.81198328080682    5.36810566333461   10.70152697553148
C         3.04649799945399    4.77646262534140   11.92952478930424
C         4.33377326828571    4.71594384446011   12.43845250393581
C         5.39589688573844    5.23606618219671   11.71451272436986
C         5.17153089031724    5.83124868648694   10.48777270569512
C         4.49945315737945    8.26925049540886    8.37739991928786
C         4.82878151025758    8.79011748094457    7.12651576290390
C         5.43593203910759   10.02901962418691    7.03691131933071
C         5.71498332035142   10.74554674492379    8.19085681140649
C         5.38279053945061   10.22884464135285    9.43309764474285
C         4.77198954325701    8.99139245347400    9.53311394907900
H         1.81060786346587    5.40760784069445   10.29609428153336
H         2.22272052352908    4.36142537672588   12.49083721941254
H         4.51107110964523    4.25548260112728   13.39889254069285
H         6.40001146873040    5.17434550487956   12.10673003452752
H         5.99230556073038    6.22735040947847    9.90547068556432
H         4.60503201222172    8.20678451234192    6.21695174258117
H         5.69448977272994   10.43764505656523    6.07126953478580
H         6.19213062231634   11.71162292391555    8.12093666642486
H         5.59796921629840   10.79376132034372   10.32778889961378
H         4.50607367756881    8.58650892194343   10.49907176214297
P         3.04376815868196    5.53985798611568    3.98733533642208
F         6.71707361513933    5.28002358883578    7.20412551570700
F         8.52214412296305    4.06510359226092    5.53482850648806
F         7.83897957759362    3.45270011413802    2.98240881797891
F         5.33006868057062    4.06532640585692    2.04406059378204
C         4.78066346708367    5.00726473114507    4.15204647983471
C         5.09320213576211    5.31362384396918    5.49076658699360
C         6.36684765073741    4.98801733624135    5.92968102568121
C         7.29315569450853    4.37174723725632    5.09311396842624
C         6.94493319117731    4.05851143987200    3.78052317904985
C         5.67516708524462    4.37294418153847    3.30845840198353
C         2.80058715136616    6.29794530118572    2.36585698211284
C         3.86155381441177    6.84770316362553    1.65486968748913
C         3.62705125189414    7.43937181314799    0.42688133035506
C         2.33978255961334    7.49990454647659   -0.08205464461438
C         1.27765233329936    6.97976548703304    0.64186098530189
C         1.50200366369850    6.38454660372549    1.86858771732192
C         2.17404692695072    3.94651955050572    3.97893236333959
C         1.84462995909034    3.42568987209497    5.22981176002553
C         1.23742225125528    2.18681827658542    5.31941530829884
C         0.95839405672331    1.47028077354180    4.16547351520751
C         1.29065025389451    1.98694365043283    2.92323418951736
C         1.90151664251552    3.22436509779587    2.82321656859863
H         4.86292263617623    6.80821063648456    2.06031850463376
H         4.45083451602830    7.85441971214955   -0.13441519128746
H         2.16249810652790    7.96036251521638   -1.04249846607907
H         0.27354647646852    7.04147781682922    0.24962380164554
H         0.68121949880065    5.98844380636861    2.45087475859753
H         2.06847266391795    4.00898248226104    6.13937308324686
H         0.97891117241399    1.77816296910320    6.28505857198588
H         0.48120641020427    0.50422385946266    4.23538957372362
H         1.07541011170008    1.42205514716849    2.02854502848319
H         2.16739425228459    3.62926791571973    1.85725659359217

