119
CSD_code = GOHZOT | q = 0 | S = 0 | Stoichiometry = C62H44F8P4Pt | MND = 4
Pt        3.95956205668996    3.18888117367714    4.76024564040665
P         5.09959986964963    2.47015196308901    1.91749095378434
P         5.76498471535062    5.42876996506659    6.02713493762261
P         3.49532081030460    1.75942755926207    6.50588096480635
P         1.67224201126016    3.19820229563972    4.48734782726762
F         5.44066814388140    4.89473452169790   -0.10054176439018
F         4.61816417327125    7.45316462297027    0.31887556237236
F         3.44129304260536    8.13052840645181    2.68977740467932
F         3.17985473139192    6.27362649019045    4.66060155804450
F         8.86637660357725    4.78536796910852    6.20634771761393
F        10.04641651934149    2.41257759592414    5.59345201104003
F         8.52846900269819    0.34154372242050    4.65958787266923
F         5.86011994529371    0.68153456883034    4.25633167051425
C         4.75882691995359    4.27001478216722    2.08603823384035
C         4.89672342637738    5.22159108700121    1.08590920550171
C         4.48038275386096    6.53149008833047    1.28902756316405
C         3.89680355679284    6.88031560547279    2.50063013898513
C         3.77839475100146    5.92121662082003    3.49548511469611
C         4.21583965827701    4.61279337056032    3.33043191211454
C         4.49370448226867    2.22746759397586    0.20576265032204
C         5.25531131440610    1.71460318521338   -0.83492015302332
H         6.30271037318375    1.49791825207620   -0.68421462424099
C         4.67664595231393    1.49937985268257   -2.07354901722806
H         5.27740679440564    1.11037270182020   -2.88301664984203
C         3.33809393248006    1.78378601381671   -2.28191341226128
H         2.89275214562220    1.61506923662619   -3.25143280674637
C         2.57097254780722    2.28791528268448   -1.24377787641488
H         1.52490471614101    2.51156929909248   -1.39873080769476
C         3.14507911283826    2.50155466375591   -0.00706998312114
H         2.55000962504518    2.88972029208352    0.81017143690240
C         6.91085456856687    2.42622016935785    1.70212610495197
C         7.49008895623781    1.16235935485630    1.59941336049117
H         6.85107288304494    0.28892313270124    1.57734254482835
C         8.86372410975712    1.02447817019991    1.54723805045820
H         9.30509119011739    0.04171817081654    1.47035074213663
C         9.67415513039154    2.14663210494985    1.61830100034171
H        10.74848388157972    2.04002960277750    1.59539583380263
C         9.10425731990818    3.40352001188613    1.72918893195171
H         9.73549595396682    4.27883818864654    1.78759365308521
C         7.72831747133278    3.54632051486896    1.77110222980265
H         7.29138560162288    4.52958104570870    1.85939814897119
C         6.74966250208139    3.96176214375723    5.51536551450098
C         8.11156674841851    3.78655603389421    5.71342346024959
C         8.72513113453484    2.57911122980734    5.40338547479030
C         7.95628222811840    1.53093274714550    4.91310473091368
C         6.59847790026460    1.72594798232058    4.70779267966308
C         5.96570796823497    2.93287204849738    4.97892684319682
C         6.40248331793174    6.73708651737267    4.92671169176938
C         7.33271559641316    6.51803964161914    3.91955792771592
H         7.79930958818861    5.54996257765345    3.81630387335765
C         7.66082855871908    7.53936865623575    3.04520518671908
H         8.38227757523433    7.36134218039422    2.26043530163200
C         7.06609460668290    8.78356622372694    3.16809904966934
H         7.31872109564730    9.57436635264406    2.47755117124875
C         6.13772051263176    9.00929058198377    4.17220490949135
H         5.66445496284901    9.97571350427341    4.26481433709117
C         5.79962220794178    7.98890389874421    5.04006891554578
H         5.05110651692297    8.14727208164696    5.80580611767425
C         6.60848869987865    5.79947522119892    7.61042069544880
C         6.56136118269191    4.79675936867619    8.57562538564920
H         6.09606213529898    3.84996583589856    8.33103632339994
C         7.10477022214833    5.00034198149694    9.82779609977114
H         7.06911730201427    4.21158452890422   10.56595839103220
C         7.69151250654811    6.21758057254642   10.13504118974510
H         8.11755630645527    6.38124982487587   11.11404528192902
C         7.73206334904013    7.22181097741685    9.18330739970517
H         8.19289129582227    8.17015467950120    9.41955089257851
C         7.19004302297420    7.01942001663142    7.92609558723683
H         7.23436463980962    7.80593168560765    7.18709613416428
C         3.43870319620561    2.77223839554348    8.01322605392229
C         3.60533868472406    2.24731575680638    9.29002469411890
H         3.78304302087224    1.18830840079625    9.42046098112248
C         3.56066999945528    3.08825414513215   10.38773099778547
H         3.70037654181020    2.68220087393128   11.37894917897311
C         3.34511055724577    4.44696334399543   10.21922576810671
H         3.32549270513146    5.09854425087012   11.07994911549108
C         3.16074288358164    4.96974400564812    8.94960469732564
H         2.99457839088334    6.02772624432224    8.81496978966233
C         3.20616621489508    4.13569505736567    7.84800423858151
H         3.08233032425623    4.54035496982474    6.84722901462180
C         4.44545793409941    0.29603278294010    6.98346451281597
C         4.02579992477832   -1.00788451945215    6.74978574382125
H         3.04635071940646   -1.20201707680630    6.33807108407720
C         4.86921289111909   -2.06551056657445    7.04299578326653
H         4.53891978290960   -3.07798773742302    6.86321646521984
C         6.13497516841808   -1.83129400892701    7.55258443783695
H         6.79215050796948   -2.65986167496767    7.76886551368158
C         6.56403179460547   -0.53172476723032    7.77428459784938
H         7.55491139008554   -0.34569848672558    8.16102772119976
C         5.72591247136918    0.52679306260159    7.48680244860691
H         6.05617201542562    1.54598656344611    7.64604862337952
C         1.72168414958588    1.21877478784176    6.39614809129394
H         1.64805423831881    0.43204936135235    5.63867345487510
H         1.39470080935334    0.81649205757116    7.36073931094496
C         0.87794226504299    2.41854055855158    5.97439450599449
H         0.85794081358945    3.15754369992209    6.78161093336040
H        -0.14930694843134    2.12336069473292    5.73587130541723
C         0.64136072230564    4.61722032307391    4.04429087205016
C        -0.18921457165963    5.27901555845997    4.94041187041887
H        -0.31669546592302    4.90616710626791    5.94602010444966
C        -0.85533448003020    6.42563723662209    4.54358569872579
H        -1.50283975250195    6.93597323068683    5.24131391388082
C        -0.68625863782032    6.92633004935738    3.26397155002482
H        -1.20015195432256    7.82693394288536    2.96392770932566
C         0.15271813769909    6.27814275301434    2.37060144455934
H         0.29535793796146    6.67284820170717    1.37567341389398
C         0.81700155073324    5.13237216273354    2.75981779368734
H         1.48307013913201    4.62511625502319    2.07264654123295
C         1.29045145944645    1.95241238724627    3.22100885504265
C         0.10573958697014    1.94578951439351    2.49305969516002
H        -0.63876668888470    2.71156598606861    2.66456059916902
C        -0.10628535825259    0.96714296800916    1.53835079642975
H        -1.02228212262684    0.96766585044385    0.96574947534292
C         0.85319149543700   -0.00671524874064    1.31042086395023
H         0.68591185864604   -0.75902936031503    0.55421263630711
C         2.02684318028232   -0.01258934657334    2.04648866058176
H         2.77694017090762   -0.76836216641677    1.86979583799698
C         2.24627057474334    0.96334007387120    3.00074294391314
H         3.17245533296024    0.97780400350175    3.56884521245531

