66
CSD_code = GOJDOB | q = 0 | S = 0 | Stoichiometry = C26H31MnN2O6 | MND = 6
C         3.95671818734635    6.05829181482129    4.69540444731769
C         3.49050108353465    6.89637948828324    3.63848450450427
C         2.39953268552612    7.75592071106173    3.86682180562268
H         2.06504807493466    8.39801183057579    3.06461769530767
C         1.75949722553417    7.76512860720837    5.07617486703942
H         0.91120671408667    8.41253421524384    5.23944864448271
C         2.19087675221887    6.93961350344176    6.12482842696810
H         1.65779855766346    6.96932382293148    7.06260675253121
C         3.27653896166194    6.11284734013841    5.95958238895413
C         4.21765631401383    6.92616001794905    2.41679777340992
H         4.03150644335116    7.78179838924293    1.76146937051926
C         5.98590694013024    6.40724664674191    0.96486772891885
H         5.58586197075991    7.26571077773440    0.40620298808239
H         6.08256572634752    5.55199333548665    0.28820822786651
C         7.36560914380357    6.76736065483718    1.53591223626798
H         7.97813602320911    7.20088530853768    0.74284464284989
H         7.23536972850154    7.51434392525521    2.32331191980264
C         8.10527648414621    5.55212238813104    2.10126340577000
H         8.20302570557592    4.80533927441498    1.30260507422857
H         9.11496208629159    5.86168745163659    2.40779719400709
C         8.14920356999514    4.49452545111938    4.18907915772111
H         9.21162640649086    4.76267646853657    4.19498397254940
C         7.72375017021511    3.70988151057603    5.30277208812864
C         6.50048743171371    2.96629473107750    5.25138618028660
C         6.13426752253210    2.24125680138159    6.43343198515446
C         6.98453344675759    2.21578543774873    7.52209626470202
H         6.67054037311737    1.65495981157460    8.38958050702594
C         8.20308440539415    2.88995321642340    7.52075146760844
H         8.84434461235491    2.83592442091213    8.38709626221041
C         8.56268185209810    3.63321735362126    6.42671057154681
H         9.49035190831552    4.18821590347995    6.42341850745622
C         3.18270896509726    5.16915943663281    8.15348813442976
H         2.13921046739271    4.83974123551464    8.04162144419016
H         3.18634179233359    6.14769893476059    8.65605203917401
C         3.97608759661641    4.15513246413061    8.96340772436622
H         3.99075122843508    3.19916360894341    8.44825366623171
H         3.52850104580549    4.03044873753266    9.94569725283815
H         5.00239419862327    4.49440540651717    9.07410907182031
C         3.87263295801346    1.67828667228181    5.72057892263068
H         3.81574013069101    2.68737544304136    5.30399625441557
H         2.99468603171845    1.50254707707647    6.35464347334800
C         3.91420001358568    0.63666737371141    4.60711595254118
H         4.72561231367835    0.86176851917796    3.91968229597011
H         2.97553690835675    0.65180648937118    4.05958665576704
H         4.06566333411141   -0.35433191708302    5.03061964288005
C         1.63800188038647    2.82112750133567    2.06006219801656
H         1.23543935149504    3.26769841610958    2.96528288169149
H         1.45611342625051    1.74906858259751    2.06737213762640
H         1.13235521117617    3.24606801392423    1.19506677175052
C         3.12438105346170    3.10328274241709    1.97241217106705
C         3.83415075223291    2.51493743472249    0.90808632695362
H         3.29842353358723    1.87164783922728    0.22785907177454
C         5.20079587792274    2.68759637204839    0.72238989380449
C         5.85998432682471    1.97371939189830   -0.44186059144691
H         6.90608283212170    2.26284206988690   -0.50564158189809
H         5.35538665282095    2.22030831216051   -1.37329654842454
H         5.79943636843772    0.89725668423773   -0.29627124583564
N         7.42133392839108    4.90448381261537    3.20502625828525
N         5.11573076564215    6.05281703076389    2.06304318057127
O         4.98564133520033    5.30692223394602    4.56747738701013
O         3.79693615677560    5.27052001468814    6.88786907624113
O         5.78922849643685    2.90463707926020    4.18528117907496
O         4.96879235663180    1.55535139669187    6.61322002794855
O         3.62509624576513    3.84706575083763    2.84721798838619
O         5.95927856764427    3.40364592355541    1.45190903378959
Mn        5.50497738872377    4.43674330534104    3.03968479416360

