69
CSD_code = GOJFUG | q = 0 | S = 0 | Stoichiometry = C25H40FeIOP | MND = 8
I         0.21029176487428    4.18364747505877    2.69889206484281
Fe        0.84496731899965    1.79416631094079    3.25007400286931
P         0.74326314933949    1.98374870832059    5.45505124890927
O         3.69127219112579    2.18504117746909    3.06143624146179
C         1.58037135470689    0.62184008367675    6.43067678371228
C         2.98672011244829    0.42387084666505    5.86675828534634
C         3.76223717092107   -0.61784945966178    6.66665121004753
C         3.01294607920211   -1.94534226910314    6.66910747918101
C         1.61310958543494   -1.75269188441346    7.24125954681119
C         0.83096499281756   -0.71006952471188    6.44266934571213
C         1.40601169272753    3.54853528124883    6.25819388104809
C         1.77652306613688    3.47742387843029    7.74373788524728
C         2.01359107097420    4.89193471523685    8.27430283267766
C         3.15750247592376    5.56231828432215    7.52179659500273
C         2.87621712859683    5.56202777111926    6.02318942317957
C         2.61101610506788    4.14390259309913    5.52368166617335
C        -1.02791019835437    1.86035698958352    6.06338267892974
C        -1.26260386681433    2.03802851751008    7.56299940920045
C        -2.71740826814085    1.71436742158029    7.90292055692850
C        -3.65808278506490    2.63847212706071    7.13726584190952
C        -3.41505877737325    2.50798505300501    5.63792193240469
C        -1.95647643702037    2.79778763282200    5.29398979465933
C         1.24284800166585    0.33320400249891    1.68270710965516
C         0.81668820943222   -0.32193235418126    2.86317615900529
C        -0.55748296892832    0.00285395934368    3.07081630980414
C        -0.95924680560740    0.89623425113617    2.07292988206062
C         0.17859684781110    1.13006059137808    1.23224190873344
C        -2.33631091792598    1.40854988043244    1.81656732742594
C         2.56062895180595    2.09533466362814    3.23413057642898
H         1.66227634515115    0.96985833284002    7.46621662768799
H         2.90965834729569    0.10117123906418    4.82532667042427
H         3.52722990876844    1.37209360681454    5.87416247258467
H         3.88698619827879   -0.27007193640678    7.69533434309302
H         4.75634656003667   -0.74778652631363    6.23478454947760
H         2.94126088869363   -2.32404472206703    5.64676264924736
H         3.55841592513927   -2.68359029981717    7.26004355873078
H         1.69161547707179   -1.42589035604250    8.28139878002055
H         1.07087312221259   -2.70088037377513    7.23093630229158
H         0.69269322077761   -1.06892924437880    5.42314871373765
H        -0.15357364919203   -0.59458558453845    6.89863415897113
H         0.56986123858327    4.25351074395781    6.13500091612986
H         2.69977597421068    2.90552266357911    7.86248403611368
H         1.00184206994189    3.00080559925829    8.34153386916607
H         2.24438452723014    4.84629025590379    9.34122362726215
H         1.10287681312963    5.48316936887114    8.15428327123913
H         3.28967526596879    6.58545134171786    7.87814063415260
H         4.08520110079766    5.01853585389962    7.71700793464310
H         2.00479721006489    6.18370495601970    5.80859573161376
H         3.72557066418112    5.98442659045280    5.48406599707773
H         3.49824741559599    3.53121250111812    5.69795939156972
H         2.43432460515852    4.17782672428485    4.45103258918841
H        -1.30930558607815    0.83411307255534    5.78952097864233
H        -1.06966075145455    3.07474469543614    7.84223866326642
H        -0.60444557034778    1.38770332595523    8.14297295328629
H        -2.87393591833310    1.82722262577565    8.97799000814531
H        -2.93392434422575    0.67470909433984    7.64280556144417
H        -4.69587588437632    2.39325503640147    7.37141764785294
H        -3.48065548655452    3.67134782592019    7.44450941483668
H        -3.66811989474924    1.49192936037647    5.32113681729145
H        -4.06080598970013    3.19813233276187    5.09215968511717
H        -1.72667015143372    3.83837446812838    5.53096187801821
H        -1.81559593540299    2.66122061646672    4.22315463030027
H         2.19372238789921    0.20428827436071    1.19293078105969
H         1.35948832992273   -1.10943572907135    3.35960762594175
H        -1.20198174792227   -0.44082107266159    3.81172857818047
H         0.16262383524544    1.71531575335008    0.32659254993343
H        -2.33484564051018    2.48659405264659    1.65911215459433
H        -3.00149591849955    1.17359077015549    2.64495122489678
H        -2.73404120735941    0.94540803916305    0.91220404340353

