79
CSD_code = GOJQUR | q = 0 | S = 0 | Stoichiometry = C26H39BN8NiO4 | MND = 6
Ni        2.65130135807036    3.13248159582033    9.83531780364938
O         2.96203265274370    4.78214396708097    8.77528326583739
O         2.05617683289367    4.71630345894698   10.74478516941063
O         3.42228391895485   -1.56310057154994   10.29496215080100
O         1.29832991584844   -1.09870204475823    9.77156030877389
N         3.36466227053363    1.83446071274975    8.71961709869645
N         4.31384764555342    0.07778189614974    7.85868935148133
N         2.26572340863448    1.87842933894696   11.19293122036001
N         2.28186155731452    0.18386099544212   12.55689883847511
N         0.54664582822045    2.64910055079288    8.81029217009545
N         0.12543313697091    1.39141598427156    8.97712078730432
N         4.84790437852083    3.52442006002637   10.76705762821584
N         8.49325435267438    4.86992074507800   12.32438414792334
C         2.48868862852314    5.38017756979981    9.77158539485766
C         2.43355533109345    6.89286597643883    9.79968558928334
C         3.82601851313573    0.62215591029482    8.99574044552300
C         3.55231948132615    2.06881182140931    7.39090335895582
C         4.14615095599133    0.97666360098746    6.84242030086347
C         4.93975105522116   -1.20430403282611    7.69971986834809
C         2.78537347673437    0.67607325706009   11.40365075040370
C         1.41101963345850    2.15556852528975   12.21763267963141
C         1.41152840064196    1.10187924354048   13.07501032266847
C         2.55785155260539   -1.08730939261014   13.16293720845199
C         2.21439530721778   -1.87822772385445    9.96712688653590
C         2.01330436179659   -3.37999608201223    9.82790009515074
C         5.34842167790065   -0.04478991014854   11.08215933894390
C        -0.36074920793995    4.73946582480116    7.86585440919774
C        -0.45473286166177    3.30114185071541    8.23310111185710
C        -1.54824922430915    2.43652310876400    8.02963207732846
C        -1.12751848649699    1.21244334263355    8.52093403841876
C        -1.80088950602885   -0.10989303867059    8.60082053296025
C        -2.86215652486172    2.77986290083343    7.41399465971361
C         5.90133932404961    3.74639324889339    9.98733441092056
C         7.12451213655485    4.18575378600727   10.44654999794140
C         7.30824634912461    4.42781154200059   11.81843956282098
C         6.18791146266617    4.19200953628523   12.63312905294933
C         5.01069816402660    3.75235779647154   12.06662246415636
C         9.63513517786392    5.03926842297736   11.45987599954903
C         8.65274381725676    5.05807182195253   13.74531046785078
B         3.84313214735714   -0.07044837990214   10.44961244220450
H         0.72796495757847    0.67419586162310    9.37184842604739
H         2.03880283515946    7.23116887368207   10.75337393555749
H         1.79747503992680    7.24644050960418    8.99091650502533
H         3.43316720043433    7.29319787597149    9.64600651045905
H         3.25325628484478    2.98912557054941    6.92916605102686
H         4.45304686836973    0.76387891075253    5.83828460661866
H         5.99521921916636   -1.08144965760071    7.44401788648953
H         4.45015237287334   -1.76459632856072    6.90010563537497
H         4.85798064487246   -1.75829320641399    8.63069448137027
H         0.86567629098847    3.07703045700572   12.26825847869079
H         0.87877676935103    0.92876104987259   13.98813890266603
H         2.79717614265080   -0.95165242369780   14.21962962436407
H         1.68786669419305   -1.74476838668925   13.08176481546550
H         3.39874821548611   -1.55327250662497   12.65703671494967
H         1.02833614826736   -3.65526362264527   10.19442251790262
H         2.06948676362472   -3.63922726862378    8.77239338998769
H         2.78678583547808   -3.91722407776237   10.36812502420482
H         5.39468260987422   -0.47740987482479   12.07870099809901
H         5.68948508621427    0.98356250925617   11.15896678650654
H         6.06376529725718   -0.58238770927701   10.46486572772711
H         0.68519918822547    5.01537583810242    7.76584594842954
H        -0.81406856682353    5.36179882761756    8.63817285795916
H        -0.87811637386326    4.92701478614255    6.92655226084696
H        -1.09312587897846   -0.84429749031068    8.97634413360749
H        -2.65806868124949   -0.06721783073603    9.27249502505968
H        -2.15508735779495   -0.42306461053781    7.61958747180830
H        -2.72758135595847    3.13187737316563    6.39065310218374
H        -3.35497914202317    3.57230243011260    7.97713461156647
H        -3.51248303231471    1.90885658156155    7.39794406380754
H         5.75341265117178    3.56092188607878    8.93153343714615
H         7.92282112850685    4.33604410990317    9.73943513836434
H         6.22758712025543    4.34629462204786   13.69825530348474
H         4.14422420406462    3.57021153410912   12.68888753988580
H         9.91778264734869    4.09542222569405   10.98219343591944
H        10.48258261455290    5.39376280348237   12.04127881976675
H         9.42713793776486    5.77637472326282   10.67910495415522
H         7.93755569822543    5.79413112525143   14.12299689977363
H         8.50940834759500    4.11992648789835   14.29161807178975
H         9.65498917450720    5.42410080542857   13.95376649738793

