61
CSD_code = GOJQON | q = 0 | S = 0 | Stoichiometry = C28H26AsN3OPdS | MND = 4
Pd        5.52930425598301   12.29745551711164   18.15733399313196
As        3.66438936469409   13.66682294883343   17.78967272449016
S         4.96516457108343   11.34992312611787   20.15744967461974
O         6.08593709817132   13.12191241158933   16.36652125209797
N         7.25766527010930   11.36825646982640   18.39739189479547
N         7.46949580164163   10.61077115610596   19.49958775838057
N         6.59230768153372    9.72752076617610   21.43301843787920
H         5.86868092562460    9.84791722865569   22.12574317671312
C         6.49385894274566   10.52330823602902   20.34664894324636
C         8.24231539850206   11.44311055546714   17.55237831874630
H         9.13664694719053   10.87998941662454   17.82247336409213
C         8.29899323935887   12.15753793596195   16.31903847573276
C         7.23019341948828   12.94489187942440   15.79112018062450
C         7.43707203160761   13.57955874612322   14.54285805209091
H         6.61610409607592   14.16271383571620   14.15056159509300
C         8.61462858418679   13.45907315762802   13.85541914058066
H         8.73497767981449   13.95785901489679   12.90428938648979
C         9.66039502773951   12.69414158360069   14.37632538524016
H        10.58809622053499   12.60142809228563   13.83245638022256
C         9.49416475270143   12.06161119489342   15.57996390145617
H        10.29789748775350   11.46388562747594   15.98774978924273
C         7.84690478897598    9.15987518396826   21.86600843944380
H         8.41659830046612    8.92651292805800   20.96542928953469
H         7.62931276913492    8.23422115595428   22.40581121419362
C         8.64254968741937   10.11495682782673   22.75307062618311
H         8.85972959377549   11.02891883114168   22.20627597812394
H         9.57992794990568    9.65449329004147   23.05235513260405
H         8.07667571000265   10.36848750276538   23.64736225138426
C         4.28507169077957   15.35196382933878   18.53554514684163
C         3.70692182736070   16.58605210838424   18.25392481548819
H         2.86610812251245   16.63901753694045   17.56865296565776
C         4.21596702049642   17.74053001781872   18.82319829077701
H         3.76346159360746   18.69637646227762   18.60067708548980
C         5.30855807516162   17.67316701251495   19.67257898171162
H         5.70523658128672   18.57597376010479   20.11320892974693
C         5.89946413088509   16.45086290883595   19.94858816373451
H         6.75859124917688   16.40131851441576   20.60191546788698
C         5.39012043555054   15.29535552205160   19.38144887132817
H         5.86181292015835   14.32003340048252   19.58690321269406
C         3.04425055043023   14.22596013711944   16.03369788457123
C         1.87881280996466   13.69568451492469   15.48905800362934
H         1.28556830170792   12.99956667337326   16.07627510451071
C         1.48052064397402   14.05309541782619   14.21202622103588
H         0.57265157122616   13.64127989090073   13.79514438294531
C         2.24766818218463   14.93328365205187   13.46712997893440
H         1.93802215625444   15.20882289210640   12.46971668512532
C         3.41569960503333   15.45552427862369   13.99935758898548
H         4.01721816528464   16.13703927326225   13.41468931521384
C         3.81448985149982   15.10262891321498   15.27598956219325
H         4.73367858712808   15.49564491060480   15.69655974201894
C         1.96708327528197   13.33762709519161   18.70161210982590
C         1.09328669205554   14.33197470185588   19.12139405556988
H         1.34705798103722   15.37334269434064   18.96157345295217
C        -0.09064726831430   13.99173204718787   19.75317338265076
H        -0.76689144086812   14.76724950354940   20.08335812292800
C        -0.40921250842822   12.66034743371121   19.96640174251684
H        -1.33336592584650   12.40029046574777   20.46145543942109
C         0.45856651314171   11.66324069486791   19.55214488344651
H         0.21364023710645   10.62529215146037   19.72465695740573
C         1.64354479116366   12.00284167116373   18.92397452429798
H         2.34995598612203   11.23382529477478   18.61055417235319

