21
CSD_code = GOJSON | q = -1 | S = 0 | Stoichiometry = C7H9Cl3NPt(1-) | MND = 4
Pt        8.31595382807751    1.80470368050740    3.45351896913286
Cl        6.51086323314451    2.72684358204587    4.58943121919703
Cl        7.20263760681220    1.81025467007188    1.48876604440223
Cl       10.22301313454431    0.89086277230760    2.47660278425819
N         9.27350783127293    1.78315839743374    5.15783800986565
C        10.13757260217492    2.75335703929922    5.50370501662806
C        10.80986186983951    2.70269440423413    6.71399834918507
H        11.50163544572839    3.48554176232367    6.97987561192123
C        10.59454501032967    1.64571105366516    7.58621669112476
H        11.11399854381566    1.59872226894860    8.53224300579721
C         9.69785522367857    0.65568232622172    7.21377706727664
H         9.49313565943994   -0.18592236514260    7.85734280613385
C         9.06259264075059    0.76529938522877    5.99433325023823
H         8.35141613730807    0.01747724855030    5.66369912175450
C        10.30911921803782    3.85193422100305    4.49839269686975
H        10.76049092772712    3.40620526688372    3.60411790764827
H         9.30472224220444    4.19288095893408    4.21233311734042
C        11.14086671210803    5.04356371874426    4.95230908411284
H        11.15607081156212    5.79292094501204    4.16435435686274
H        12.16830754460432    4.74974976062417    5.15825979905027
H        10.71513377684057    5.49675890310498    5.84568509120512

