37
CSD_code = GOJSUT | q = 0 | S = 0 | Stoichiometry = C14H18Cl2N2Pd | MND = 4
Pd       -1.76926119908229   -1.14195714798584    3.64686049890335
Cl       -2.56500032005373    0.54452141053979    4.98731176115219
N        -0.41494705870629    0.05970214711094    2.93734396389081
C        -0.67671498458946    0.79152267482903    1.84767527658537
C         0.28837932019139    1.64526056418661    1.32884744856792
H         0.07777945877343    2.23342962164966    0.45127520018956
C         1.52456973260898    1.73527118612636    1.94711555203820
H         2.28352776536288    2.39450683552689    1.55395926333656
C         1.77199964993726    0.96831845789188    3.07513441536153
H         2.72115376009808    1.01096947686093    3.58444992876632
C         0.76684677817745    0.13901330832947    3.53793951319250
H         0.90702193701440   -0.48557808868648    4.41969484373883
C        -2.05376556673560    0.60524994318112    1.26858309005235
H        -2.78126344942849    0.84447579807275    2.06655685787565
H        -2.16317870779044   -0.46636739276893    1.01861117234036
C        -2.36371177244023    1.44458719635839    0.03623204256692
H        -3.37831956377576    1.24142854292762   -0.29739277767236
H        -1.68595645790502    1.20355609634972   -0.77972151679284
H        -2.28854847146268    2.50647897062131    0.26000535709361
Cl       -0.97396728862164   -2.82798898713748    2.30631712149725
N        -3.12492896276641   -2.34154999953921    4.35747144247130
C        -2.86315597756300   -3.07366986910906    5.44694095391456
C        -3.82823159058099   -3.92759311409135    5.96552089249327
H        -3.61765787123842   -4.51590456914671    6.84301124327695
C        -5.06436063887711   -4.01757472176540    5.34713026984716
H        -5.82331950026164   -4.67689990938076    5.74014549253486
C        -5.31169576388951   -3.25053508597154    4.21914523311546
H        -6.26077500427510   -3.29324067859076    3.70969623186727
C        -4.30658041162356   -2.42101283356965    3.75661529764553
H        -4.44665395539112   -1.79643259775494    2.87483364498096
C        -1.48606911387182   -2.88761833054420    6.02599631910632
H        -0.75861005290794   -3.12679328813114    5.22797047999057
H        -1.37657589326448   -1.81604558099522    6.27610458271592
C        -1.17614949704757   -3.72715315542324    7.25822087033210
H        -0.16152793712810   -3.52409118900845    7.59185262868525
H        -1.85387779740414   -3.48617483327728    8.07421820358397
H        -1.25137359348151   -4.78901085768484    7.03432720075425

