64
CSD_code = GOJTOO | q = 0 | S = 0 | Stoichiometry = C33H24ClMnO3P2 | MND = 6
Mn       -1.86628688778317    1.18874833689669    4.73180367901797
Cl       -0.07018952984495   -0.25876192064709    4.73934025502286
P        -0.97515938450354    1.42553685583404    6.79653355198179
P        -0.11805599810629    2.52219529810794    4.20237381667937
O        -3.83472341143522    3.33855283295199    4.95255976055938
O        -3.86754006493263   -0.75049392331568    5.63777489820881
O        -2.60146944187930    0.75985998125505    1.92732731256157
C        -3.05452667724486    2.49532195424103    4.86918545771523
C        -3.05664614064481   -0.01878145188126    5.27948228408773
C        -2.28806243872321    0.90643452373819    3.02340696944017
C         0.79168207395615    1.84953061450648    6.68319797690968
C         1.71390729617006    1.67271098733886    7.70256431406442
C         3.03635286725669    2.03248548058357    7.49277741785659
C         3.43638910764934    2.56029736221602    6.27616120697001
C         2.52058601162323    2.73306910484977    5.24967730987030
C         1.19624569757334    2.37894626976206    5.45382597404943
C        -1.64891008780922    2.82623937062864    7.75175150881883
C        -3.01998813897985    2.77777690393491    7.99762046523636
C        -3.64573097868578    3.81626603352073    8.65698310647730
C        -2.90805389851293    4.91730977474769    9.06607348730124
C        -1.54598883903985    4.96881000209448    8.82611885089642
C        -0.91248816014426    3.92611409991176    8.17194834509200
C        -1.03947832465592    0.10868993101500    8.04904646459417
C        -1.18645787853542   -1.22337332379570    7.67743412915432
C        -1.22604277238530   -2.21275196545184    8.64356282173333
C        -1.11895914803658   -1.88282037564313    9.98370929925196
C        -0.97955098972839   -0.55630726515328   10.35986884163640
C        -0.94414822752226    0.43822531648894    9.40101559617622
C        -0.50898624165694    4.30216716997572    4.23695285687473
C         0.01903266190983    5.20857500419053    5.14671283343189
C        -0.41859085949107    6.52202085873499    5.14124694402661
C        -1.37582897226582    6.93475554845157    4.23088517036010
C        -1.89972566119434    6.03446882665777    3.31480701937738
C        -1.47352977335408    4.72193834199672    3.32215778278889
C         0.76912489302547    2.39968117387917    2.62002725292422
C         1.45428931186786    3.50842940566747    2.12352497560961
C         2.14335886800426    3.41756531086622    0.92902806550407
C         2.15041066135338    2.22877833475153    0.21676375084722
C         1.46352853829432    1.12901104578969    0.70170661490757
C         0.77472062688384    1.21064578638154    1.89861232559251
H         1.40663696918224    1.24347093796553    8.64597254630799
H         3.75971574521575    1.88820416357714    8.28174494575324
H         4.47088112786464    2.82766532183392    6.11857808367103
H         2.83776541938298    3.12531429981972    4.29353533127875
H        -3.58314288911157    1.91235445109718    7.66289781403486
H        -4.70803181787811    3.77470805462822    8.84605408772875
H        -3.39719027703436    5.73576743068079    9.57308270103410
H        -0.97121834529821    5.82464087652638    9.14978189718793
H         0.15474749669368    3.96472758343577    8.00039474068775
H        -1.26429982870565   -1.49165043840138    6.63339775921519
H        -1.34197601721727   -3.24433183050731    8.34644910781191
H        -1.14942780165089   -2.65641677929459   10.73666613520651
H        -0.90303214180678   -0.29421665300982   11.40531793308889
H        -0.85595021379286    1.47404859132964    9.70139449744227
H         0.77681317423061    4.89344428462945    5.85092722441065
H        -0.00952395921904    7.22487785265907    5.85266472979311
H        -1.71654605099647    7.95949497463839    4.23429969925636
H        -2.64554960323440    6.35662197198678    2.60350021786750
H        -1.88002394437119    4.00139179809028    2.61967206746280
H         1.43531880080677    4.44455968387144    2.66610529252602
H         2.67324782114479    4.27976623161665    0.55043773642808
H         2.68807895789641    2.16319902735812   -0.71759757318730
H         1.46158910879945    0.20269641569228    0.14686159756201
H         0.24620858062856    0.34529413369680    2.27261073382415

