24
CSD_code = GOJVAC | q = 0 | S = 0 | Stoichiometry = C9H8ClMnO3P2 | MND = 6
Mn        2.45375324420253    1.82359668471376    1.76792764948877
Cl        4.43632544446182    0.80711555020760    2.32033798359379
P         3.82609592541305    1.83632235978461   -0.01969030993495
P         3.88956619081469    3.36435859092312    2.56961858760707
O         0.30358456237874    3.56502078449050    0.79410424118870
O         1.27994195509235    1.45857578223421    4.43217989605635
O         1.19240719295897   -0.65917447120594    0.84367385907152
C         1.14250669462412    2.88201119882672    1.17632182504499
C         1.72564150936046    1.61252235801721    3.38954717569384
C         1.67215309518085    0.31813529601769    1.19598539130454
C         5.27437335876428    2.89035160631639    0.25829703307478
C         6.30688456081300    3.02462015798247   -0.65845241622922
C         7.37070416810902    3.86024643087577   -0.36018193815708
C         7.40083848120613    4.56379545888899    0.83482161678306
C         6.36745682256162    4.44250187474131    1.74936268026010
C         5.30447074275705    3.59896802929367    1.46112370980725
H         4.41570087683023    0.65792557390007   -0.44882063253658
H         3.53007287485336    2.27417483559895   -1.32757230470014
H         4.51936189787640    3.15736083576802    3.78653865734724
H         3.63329495025099    4.72707556428265    2.82918322684683
H         6.38290370012450    4.99329093680807    2.67996352088578
H         8.23577748721427    5.21180685052000    1.05507617071979
H         8.18242454131342    3.96368159650882   -1.06443849226983
H         6.27585972283829    2.47741611450539   -1.59080713094673

