28
CSD_code = GOJXUY | q = 0 | S = 0 | Stoichiometry = C9H9N3O5SW | MND = 6
W         1.73075823618895    8.76925491750721    8.63194963964024
C         3.49141739250442    9.57904065652180    9.08532258619943
O         4.50103021562106   10.02151529823900    9.39987884376378
C        -0.07956033369954    8.00716460527196    8.23433144506454
O        -1.10658521223727    7.57110183106269    8.01520525642540
C         2.29980249041337    8.08718989245285    6.85131268677045
O         2.60047236327051    7.63343667724229    5.84219505541251
C         2.37242996805916    7.07354295934454    9.41572065709914
O         2.75682498723500    6.09222611836802    9.86256562060563
C         1.06835662505785    9.43994945959374   10.40075118874905
O         0.68522263764887    9.80992226290884   11.40534101362392
S         0.75660811818508   11.07714898986061    7.63308252750868
C         1.89999229888869   11.73487143565182    6.60101720213188
N         1.68026518178282   12.89852803386846    5.98186577253043
N         3.06797691701238   11.11561673397518    6.36137101060556
N         3.97320020518726   11.67450566842323    5.51857095118546
C         5.08470958894091   11.10473927826759    5.27601807912818
C         5.53985965349705    9.79754586784052    5.85323760652349
C         6.00804099711873   11.80308808928322    4.33611066219546
H         0.82132649502579   13.39380659443908    6.13569612135429
H         2.39903764451436   13.25347185414177    5.37042701750207
H         3.22241504222917   10.22233521568876    6.84098159763516
H         5.57107719897043    9.84659340828268    6.94212023195300
H         6.53191038934596    9.54724725154050    5.49120416935857
H         4.85697562266500    8.99514969094256    5.57250260614546
H         6.94645715114124   12.02777684109462    4.84082688852792
H         5.56243210460009   12.72597761697765    3.97772783679104
H         6.23124602082986   11.15625275120929    3.48916572557131

