78
CSD_code = GOKGIW | q = 0 | S = 0 | Stoichiometry = C34H42PRh | MND = 8
Rh        2.53117020090904    0.78323573473290    4.63798836642246
P         2.24109348326861    1.34107383158738    6.79161878054065
C         1.40220950636866    2.56448937255427    3.60821165739766
C         1.08305929464386    1.36816053516739    2.92820935439169
C         2.31385379621978    0.80468034489645    2.43521282711219
C         3.36553660402236    1.74462472290825    2.70860531787380
C         2.82062476747454    2.80061683418798    3.47092997815126
C         0.44634364629528    3.59479270917535    4.13342113182543
C        -0.28406153476389    0.85758456635311    2.57833244716206
C         2.39427949662614   -0.29570005453772    1.41810099035485
C         4.73854893149152    1.70261278942844    2.11158788523324
C         3.49307819359954    4.10819001820123    3.76278005776128
C         2.93414742818892    0.36707341215696    8.18037422420247
C         4.11731785337052    0.68168680281829    8.83700982105328
C         4.60158188951371   -0.14353478270251    9.83801954410501
C         3.91522557815400   -1.29220509320122   10.19084255867457
C         2.73399049127836   -1.61322146554781    9.54100119237389
C         2.24909297859452   -0.79142197131287    8.54213066234887
C         1.80185241304100   -1.16303935894672    4.94738290304067
C         2.88121732514300   -2.15097279840671    5.38869174813739
C         4.18668869121443   -1.69667026850769    4.73116449529005
C         4.32019093186615   -0.21445534604390    5.06655727764617
C         2.89810493398237    3.00987128080344    7.15116935081250
C         4.23626068535830    3.22563555776433    6.82361425795598
C         4.82247491545755    4.45842604313124    7.03650890182347
C         4.06885630357192    5.50337219754720    7.54861630985044
C         2.72909613834075    5.30833138863785    7.83610304641264
C         2.14326636829866    4.06823186380658    7.64139405245624
C         2.48272978579646   -3.58355930530899    5.03502210966527
C         5.41193814394431   -2.47352717818878    5.21281717811539
C         0.52082605462563    1.45258323842273    7.40281609671342
C         0.23888073024255    1.73251536639909    8.73776817158824
C        -1.07309461791331    1.81034597812107    9.16603804665425
C        -2.11236650085586    1.60444658754830    8.27131546918003
C        -1.83687333433586    1.31261357646621    6.94627144289696
C        -0.52388031390586    1.23586361678794    6.51527486260358
H        -0.55051226313358    3.18503037344005    4.27752759749178
H         0.37635998578260    4.42019004336055    3.42127117854099
H         0.78653045687736    4.00241965098057    5.08538305332234
H        -0.38432840523468   -0.20751138340137    2.78505065665496
H        -0.46512152881256    1.00869597431258    1.51177847979112
H        -1.05796089700356    1.38790567212903    3.12915018438721
H         3.36561988015356   -0.78526308018592    1.44055044491340
H         2.24701164143173    0.11866233657211    0.41761277756035
H         1.62583703327621   -1.04754047973502    1.58594749533163
H         5.08933331977944    0.67961355061985    1.99165631042027
H         5.45485649036099    2.24667857004592    2.72417263865973
H         4.71609015805392    2.16877126064974    1.12377805443385
H         3.03608059445412    4.60992478672849    4.61280151333141
H         3.40335157489812    4.76546298950931    2.89385338008267
H         4.55204269916194    3.97416343616244    3.97382855088084
H         4.66087303208525    1.57853076580254    8.57822468128792
H         5.52122809308810    0.11349391260458   10.34385339386220
H         4.29777769274226   -1.93481476380539   10.97010182726029
H         2.19287872269282   -2.50809491014726    9.81219847590717
H         1.32626393868683   -1.03844393953574    8.03638159018977
H         1.43780780286895   -1.47762843895383    3.96043112214374
H         0.95233950636923   -1.20733131493974    5.63966417295052
H         3.01456121481761   -2.08297827520776    6.47409084223169
H         4.09428578568880   -1.82522648835682    3.64622631675180
H         4.59680472184199   -0.13694715784656    6.12497765378981
H         5.12698653198760    0.24072513687619    4.47740100496833
H         4.80058725758011    2.41668770853679    6.37662262717890
H         5.86366863920992    4.61301395350261    6.79194488406107
H         4.52165621836338    6.47083140968492    7.70852505823951
H         2.13300119039183    6.12673363467566    8.21400006980913
H         1.09546490372083    3.93145081541362    7.86809913605849
H         3.19682993433485   -4.29826389228209    5.43757861027509
H         2.43793759887996   -3.71029121282268    3.95474010880968
H         1.50255982476592   -3.81415820380260    5.44874472392798
H         6.32061271535931   -2.04393620200761    4.79455465304637
H         5.35888024947138   -3.51645972894905    4.90897436950182
H         5.48029833305747   -2.43053149380735    6.29857939819280
H         1.05050339795255    1.88291278962419    9.43723091213861
H        -1.28856640675736    2.03021274258097   10.20181762437045
H        -3.13591998215212    1.66551138864472    8.61124634057916
H        -2.64647769806741    1.14100472799833    6.25125101834131
H        -0.28759521827521    0.99294258829275    5.48737455062394

