75
CSD_code = GOKGOC | q = 0 | S = 0 | Stoichiometry = C33H40IrP | MND = 8
H         7.44715207534363   -3.30595772179447   -4.44646205177246
H         5.85516690795448   -3.90150059260076   -3.97894100815142
H         7.29503417012669   -4.47375123990731   -3.13381221548922
H         4.11306184991243   -3.41588944835229   -2.75222699151986
H         3.42877667881629   -2.04697958061289   -1.87365878813647
H         4.10248315419222   -3.41453755139386   -0.98886862653974
H         5.47776879096543    0.26864569162411    0.65474570137186
H         5.27127005979754   -1.42489073965717    1.10530007999423
H         4.10533471091451   -0.64974156713634    0.03271833674251
H         7.76394558893853    0.59596232752729    0.40994917301220
H         9.19664165874103    0.08309386699321   -0.48810551488560
H         8.55089444261120   -0.93316136945953    0.80101779253495
H         9.38316867628723   -2.43480073626952   -3.42549372650627
H         9.65349033490356   -2.87226867097663   -1.73803851635833
H         9.91117684177711   -1.21099417876407   -2.27096995753710
H         8.71927502465532    2.04406083470792   -6.14445671620275
H         8.37904078358417    4.17099038919554   -7.31131236805637
H         6.10077814036875    4.95018458910310   -7.84407757079383
H         4.15267734835562    3.57544452239804   -7.20106324871384
H         4.49346018246656    1.43399346670995   -6.02606561046225
H         3.84862793695667    0.38185739023219   -2.15147820061756
H         3.82421636613317    0.46457497183660   -3.90575248494875
H         4.70721376889186    2.69505259084857   -3.89759311000415
H         5.82096943674192    3.67126913486213   -1.93363178574946
H         5.36780135345503    2.26252283133534   -0.96537288982883
H         7.19997234787074    2.35360924352557   -3.38964822561551
H         7.64085382795385    1.85663057390050   -1.75736180176762
H         9.20721336604574    0.93353633232486   -4.12351181237329
H        11.57505245230796    0.32155960175206   -4.51259605953110
H        12.12294331651296   -1.55605761160423   -6.01853141344372
H        10.31232014289269   -2.80417229267048   -7.13322907123622
H         7.97017687233669   -2.15327477642480   -6.80098443902039
H         2.88893508246045    2.49035526385668   -1.45186732630001
H         2.33545985430927    2.58973189078864   -3.12518473044314
H         3.19449032153444    3.94898013965660   -2.39680384175143
H         6.67198543060157   -0.25600581903704   -8.01188945716070
H         5.28378575287891   -1.61824043822947   -9.52758156332319
H         3.54405472187650   -3.10449425347870   -8.61045405956407
H         3.18036113567405   -3.22036938550928   -6.17394289121312
H         4.57994449817133   -1.84371129390914   -4.65577608009562
Ir        6.30489105091878   -0.18875785816981   -2.86306518524266
P         6.73801738955541    0.00908170110987   -5.08176321881111
C         6.71641057621270   -2.49316539294292   -2.59587810621259
C         5.58014922960785   -2.13555793607880   -1.84272060510348
C         5.98365733859899   -1.13796416231079   -0.88835160704766
C         7.40700309959713   -0.98813168476109   -0.99392095755405
C         7.85017653925709   -1.78259800375798   -2.06893461208863
C         6.82884476387890   -3.60118552775628   -3.59781391422272
C         4.23026262432128   -2.78543864444354   -1.87288252378872
C         5.16157048033330   -0.70641126414490    0.28895806114752
C         8.27777215041664   -0.26282683917903   -0.01752555919296
C         9.27759061603261   -2.08710029159439   -2.39965600323663
C         6.62502048072389    1.59687783137802   -5.99644330289232
C         7.71507603452060    2.37497541069279   -6.36353907133982
C         7.52338551991297    3.57538092170922   -7.02747891449347
C         6.24550927021021    4.01254042188265   -7.32809504875853
C         5.15256459953527    3.24037279322425   -6.96711978742644
C         5.34118480164113    2.04276083751331   -6.30530670326923
C         4.40507021463859    0.74725295123137   -3.02070019718533
C         4.46624566446655    2.27492331685664   -2.91580056468722
C         5.62262984269075    2.59551447616514   -1.97306321919343
C         6.83562218583642    1.83021528600989   -2.49717324641827
C         8.43848744645984   -0.52720844951957   -5.47890595112978
C         9.46567512967550    0.14374376657865   -4.81614026433181
C        10.78467230440496   -0.21281654841452   -5.01993781512173
C        11.09337893140013   -1.26886744090013   -5.86377077519892
C        10.07664293706914   -1.96646921423264   -6.49247706520678
C         8.75412172884303   -1.59938275222594   -6.30421837757580
C         3.13794143708759    2.86332163693032   -2.44329791552879
C         5.72529417295052   -0.99047397189141   -6.23273546167396
C         5.91419849741320   -0.91559993948293   -7.61061833366071
C         5.13248379817454   -1.67673013596187   -8.45936359857539
C         4.15311905708001   -2.51195164470337   -7.94358146356850
C         3.95134843249385   -2.57844710621571   -6.57549973939308
C         4.73430624774012   -1.81803292795847   -5.72436588057824

