23
CSD_code = GOKXIO | q = 0 | S = 0 | Stoichiometry = C4H8N6PtS4 | MND = 4
Pt        6.26156590188176   -2.38066484828416    8.72474578009196
S         6.59270357252633   -0.11707053329074    9.19244369284377
S         6.16382991355623   -3.07382467983474   10.95248849738000
N         5.99699782270729    1.50071272709931   11.10523205768569
N         6.54196498552246   -0.52710794022446   11.90679190717048
N         7.12946206128160   -2.26911129752006   13.19992421352921
C         6.34901424101415    0.22404895650496   10.85063598950317
C         6.65052708596814   -1.82806889635035   12.01901566818332
H         5.96989316697161    1.82332691130498   12.05684362029613
H         5.96693741607700    2.15733721102699   10.34551745014472
H         7.30801791623921   -1.60897541919638   13.93658619486282
H         7.10924954837397   -3.25445035212750   13.39475576090984
S         5.92959728013941   -4.64406826661897    8.25686766447436
S         6.35998521735845   -1.68753821941120    6.49699267975035
N         6.52237939788800   -6.26178334712271    6.34303101169548
N         5.97788350968586   -4.23336252524445    5.54263507064726
N         5.39012898656679   -2.49046527699134    4.25074773281744
C         6.17144968966080   -4.98496924446917    6.59835323236664
C         5.87054745509250   -2.93228560553648    5.43076662283282
H         6.54861189725851   -6.58415185124547    5.39131357025846
H         6.55250166958951   -6.91861854778425    7.10256776432660
H         5.20971471948367   -3.15019706594066    3.51417321336680
H         5.41103654515631   -1.50511188874469    4.05617060486403

