51
CSD_code = GOLFUL | q = 0 | S = 0 | Stoichiometry = C18H23Cl2N5ORuS | MND = 6
Ru        3.81120094091833    2.88167178025852    5.43882739095991
Cl        2.42904812313352    3.73955478611190    7.16954015496220
Cl        5.66291080474325    2.23074368594029    6.77344442503001
S         2.05319533225215    3.48504080521444    4.14712325419021
O         2.20046541733327    3.22194800263096    2.71558243274770
N         4.71954995428455    4.63628849582422    5.27399056631537
N         4.96616086332225    4.31912624082226    2.94291625571577
N         4.73442213312419    2.18294363612546    3.88304440047064
N         4.19739232846483    0.18824705176534    4.85985333483449
N         3.30683506611189    0.88973949445280    5.60669625910386
C         5.00119622585414    5.34090658809709    6.37480115931332
H         4.60641480363038    4.95102147990725    7.30529123401538
C         5.72918993681606    6.51303141619993    6.35850830813729
H         5.91241931494403    7.04283980582675    7.27824447421312
C         6.21762249546818    6.97548909432949    5.14641856061660
H         6.79834854192399    7.88276529681441    5.08584980706816
C         5.96536272196872    6.23157563705226    4.00923695587792
H         6.36973481678434    6.53865435308131    3.05893239724207
C         5.21909989092785    5.05548387815057    4.10209673648022
C         5.10619008751427    2.94285556244117    2.84685666066366
C         5.59912022312497    2.36123725946930    1.67859435079508
H         5.92531037079458    2.97236215546917    0.85593139191045
C         5.67978174613868    0.98343963589775    1.58772388185318
H         6.06090226288760    0.52096310127579    0.69140756590520
C         5.24534158290797    0.20044503023213    2.64413083534192
H         5.24270341904931   -0.87073330602180    2.56853867695240
C         4.77805473414070    0.84458085199758    3.78047292791235
C         4.29334089956991   -1.09533415910112    5.30820662493569
C         3.41465824169751   -1.20078116589296    6.35809331131622
H         3.23592292074103   -2.06769496478510    6.96050283259925
C         2.82000761849937    0.06474715745867    6.51777561418586
C         5.23750593559694   -2.11800779100310    4.79181565041023
H         4.84990847046497   -2.60861851757933    3.89800940938414
H         5.37695753165607   -2.87865795551883    5.55603765319094
H         6.20235466934450   -1.66971616360180    4.56350518213144
C         1.78677909456811    0.44869549734621    7.50942051516415
H         1.89841081909453    1.49662464336605    7.78103423775033
H         1.88097641866507   -0.16889374697810    8.39827285943125
H         0.78971852301027    0.30564604296355    7.09122747688904
C         4.78617357497083    5.05429595186311    1.70621980482036
H         4.34046695457911    6.02099122993985    1.93489307555071
H         4.08925962760368    4.49635509291377    1.08122375328243
H         5.72054727896777    5.21718371717095    1.16011838012286
C         0.48340043797269    2.71913278783496    4.65553527068917
H        -0.31584065295393    3.09146239406072    4.02576295793537
H         0.33367627863368    2.97178187007548    5.69949245804253
H         0.59545711235739    1.64651804271676    4.53273104800770
C         1.51713146968574    5.21956287928642    4.31749964907960
H         2.32361327052917    5.85623571496602    3.96808529229387
H         1.33341329516012    5.38545074429505    5.37382641883560
H         0.62698607091692    5.37599887883421    3.72005612522350

