35
CSD_code = GOLFEU | q = 0 | S = 0 | Stoichiometry = C11H20AuBrN2 | MND = 2
Au        9.43117431296348   10.27030581818305    3.29043439132688
Br       11.54115211101621   11.18726853197466    2.70770681343047
C         7.59595661934105    9.47829645253323    3.79676489679644
C         5.88259394911668    8.68852842389409    4.97075291567697
H         5.31321013173305    8.37663996184632    5.81825606555558
C         5.52075319135501    8.69430773450064    3.66842007119402
H         4.59525911689596    8.38758166543348    3.23355256056370
C         6.60703856520259    9.35697535896355    1.49813948238595
C         5.29144007922118    8.87495109275096    0.88177370489445
H         5.12401578140601    7.81890289321871    1.08207937778682
H         5.34462419917678    9.00524739245487   -0.19574635072605
H         4.44550227661322    9.45404101531767    1.24532218723184
C         6.78116878082482   10.84432087483793    1.17971057154765
H         7.72821542530680   11.21388625471613    1.56590760527483
H         5.97574543195483   11.42447781363201    1.62589640071239
H         6.76631775130945   10.99667163448815    0.10445556090802
C         7.75029464931060    8.52690722641589    0.90855918459979
H         8.71260359624269    8.87506331001047    1.27618752208250
H         7.74713648172154    8.61149587851811   -0.17422361458970
H         7.63649121968373    7.47873554038477    1.17775704255366
C         7.93979785808917    9.32174810038919    6.27326534973471
C         7.11452065331673    8.87015511788265    7.48073018145111
H         6.21828776056429    9.47549139971218    7.59745480260428
H         7.71661405026448    8.99070985781084    8.37728307975061
H         6.83868991554537    7.82078359626449    7.40363679236862
C         9.19121698397147    8.44447923141352    6.18209563053214
H         9.82794645042753    8.76298401597222    5.36015386108909
H         8.91427416910941    7.40433167424644    6.02174274219505
H         9.76061074964155    8.51562582675705    7.10419593057930
C         8.30911730433751   10.79547055054425    6.46107146640223
H         8.94625344925704   11.14185874967639    5.65076361692503
H         8.84482137299223   10.92532446656804    7.39688799809106
H         7.41253044735546   11.41172261880025    6.48312230336206
N         7.16030703012978    9.17207479205028    5.03731549198471
N         6.58241813460228    9.18053512783939    2.95617436372402

