56
CSD_code = GOLKEY | q = 0 | S = 0 | Stoichiometry = C25H26Cl2N2Ru | MND = 9
Ru       24.92746953650520    2.24394416070627   11.42791884691070
Cl       26.56771380853929    0.66437672721970   11.96044922374761
Cl       24.10310061323438    0.82233471085984    9.75316074641589
N        27.15462992068735    2.85549064726966    9.37949179975214
N        26.59821123735756    4.44707730245166   10.76241785919735
C        26.31819096967063    3.16349420232610   10.38033982987438
C        27.95769332198395    3.93448275874554    9.08506021225842
C        28.94409533243959    4.12747480003946    8.13134348572559
H        29.20117031585226    3.35438887426328    7.42645769669401
C        29.57366920726091    5.35913133009391    8.11196731042878
H        30.34657182974737    5.54513492131204    7.38235295553176
C        29.23460782307980    6.36802445715510    9.00989398087523
H        29.75376470634514    7.31287913337339    8.96111781828138
C        28.24514093942816    6.18895178576139    9.96038554617046
H        27.98276133908550    6.97437514116573   10.65198328187478
C        27.60878299742053    4.95860891743785    9.98365921134020
C        25.95382530865066    5.09610927098571   11.89144085662640
H        25.55576298408321    6.06730181916444   11.57757266253855
H        26.69650514501637    5.26574512089409   12.67855762164141
C        24.85492292387140    4.16152271574049   12.35007816062689
C        25.07689283577447    3.23253880528385   13.40628082717222
C        24.09166319425402    2.23520850612491   13.65311505039500
H        24.23386405471102    1.56205456033216   14.49109464494598
C        22.98334703394864    2.07971160486464   12.82798150489728
C        22.78669067255632    3.02652054612147   11.77750705522451
H        21.88738964206928    2.94405851099092   11.17510060278019
C        23.64254052715771    4.11434699366213   11.57933188028405
C        23.29957397165486    5.18349683490776   10.57870530346785
H        23.18583994255350    6.14501331079782   11.08305435878672
H        22.36272499272015    4.94351685967958   10.08125873893720
H        24.06866609434358    5.28544513822366    9.81363730848656
C        26.27696599044019    3.31610306183853   14.30761893764816
H        26.43741007452896    4.33449506455922   14.66236837800200
H        27.17089986243010    2.97704461836587   13.78106778061025
H        26.14211814800421    2.66842827957955   15.17064314562066
C        21.97145441665507    0.99402833404634   13.03816334144013
H        20.99716334724838    1.42405048256965   13.27519268995722
H        22.27227967831961    0.33252553590576   13.84728754195063
H        21.86707886682897    0.40260201814292   12.12774977974112
C        27.20585232808487    1.60012694846212    8.66698089038600
H        26.55310677190056    0.89457338288014    9.19596580858425
H        28.23067578569628    1.22736730184919    8.70804663763644
C        26.72829438827526    1.77078230416894    7.24664089636609
C        25.60571402650262    2.55625598130348    7.01920022540751
H        25.08811176776659    2.98521857303815    7.86599867737044
C        25.12885025252123    2.76040463966980    5.73888899899441
H        24.25182748780114    3.36931056445001    5.57764683616218
C        25.77716689452557    2.17174231947856    4.66756729463457
H        25.41655109222694    2.32508683714152    3.66101370736786
C        26.88119078855843    1.37000496861994    4.89056757942794
H        27.37320846520145    0.89678393129264    4.05238285883826
C        27.37016387424438    1.15239846621307    6.17296910568110
C        28.55148993612906    0.24995885591552    6.37687782188832
H        28.86887112583246   -0.17737213857174    5.42898315620509
H        28.29572433728068   -0.56343634661256    7.05357404098991
H        29.39654707099653    0.79105554773727    6.80368748720431

