56
CSD_code = GOLMAW | q = 0 | S = 0 | Stoichiometry = C27H20CoN3O4S | MND = 5
Co        7.39271168719603    2.06857546220778    2.42281231368036
S         9.45714393763461   -1.76489097478468    2.90056667308143
O         8.49477409429185    3.47755647912004    2.01094125941657
O         7.06849379205172    2.97339196400192    3.98623473190913
O        10.03258915798656    5.58569529377705    2.07626488607831
O         7.16010867811991    4.57648644493720    6.04353388481842
N         7.49602279962329    1.35499456422673    0.70179603982953
N         6.02883396891485    0.83521651878554    2.73603304881581
N         8.61695999955948    0.85474432032345    2.99533399702395
C         6.68375459368409   -0.62891792249179   -0.53496691720397
C         6.71191838258696    0.21045593165563    0.55598111257530
C         5.89601832942336   -0.08209790508982    1.69353706774318
C         5.09848157829168   -1.20433391506526    1.68788238804337
C         4.25084227937862   -3.22089172703952    0.55881148892374
C         4.23766693453894   -4.04502234645311   -0.53101302696508
C         5.03336191320334   -3.75367158394872   -1.65123203710771
C         5.82951250007215   -2.64323000648106   -1.66304759083867
C         5.86668521952317   -1.77214852825974   -0.55358588579746
C         5.06160608960143   -2.06618913774723    0.57849996510791
C         8.31601075460815    1.74334229545856   -0.24402214348185
C         9.18046477247252    2.84904054947580   -0.18262597170477
C        10.01612350673590    3.14556967894749   -1.28759798161972
C        10.84223918049917    4.22700970013940   -1.26215714377123
C        10.87542937813646    5.07555263689695   -0.14117349965180
C        10.08488450705625    4.83100390928790    0.95218838336237
C         9.20927310631664    3.68308918522865    0.97711812536102
C        10.87898794516525    6.70169702494772    2.17543403490508
C         5.34926854847390    0.70402642403220    3.84899760593145
C         5.44141866680144    1.54014710472700    4.97419806997758
C         4.64447630868920    1.26954276308174    6.11390076974234
C         4.69672550404622    2.08084554099106    7.20554055136303
C         5.53638617438351    3.20891302913891    7.21881231407477
C         6.32529872713411    3.51359206046457    6.13947117439241
C         6.31807397730283    2.66830080660777    4.96883017342161
C         7.27992912094845    5.43765246254605    7.14610371514744
C         8.92434839216470   -0.28526021059596    2.91241195076614
H         7.29162741528986   -0.44418959034508   -1.40709960731959
H         4.48278890488990   -1.46522278971659    2.53469550785378
H         3.64211935572481   -3.44330554921885    1.42330089665237
H         3.61642630855185   -4.92821979888938   -0.53871525354529
H         5.01124021908191   -4.41727063648647   -2.50281329569504
H         6.44507239903384   -2.41760120544989   -2.52184804064179
H         8.33734625500160    1.18853618711412   -1.17826125979835
H         9.98728343049262    2.49413474665043   -2.14834226026608
H        11.48181953316169    4.45023834181905   -2.10201667362621
H        11.54333064000851    5.92245575339066   -0.15895592330036
H        10.68259618573795    7.13298734358923    3.15550126687929
H        10.65908577120339    7.44559119664788    1.40151554413235
H        11.93388124574961    6.41427694238181    2.11125167867679
H         4.62804369914444   -0.10499311724402    3.92916163965032
H         3.99848195902925    0.40432090263487    6.10059393774536
H         4.09334825123241    1.87184828104287    8.07532342206134
H         5.54961655125132    3.82777819513514    8.10226607529410
H         8.00999345505015    6.19009532115282    6.85292672545759
H         7.64245673174607    4.90791437761307    8.03349709359991
H         6.32861718200176    5.92803720513201    7.38110499883572

