29
CSD_code = GOLRIJ | q = 1 | S = 0 | Stoichiometry = C12H12AuCl2N2(1+) | MND = 4
Au        7.45968239309902    6.88536974147962    2.76594489490082
Cl        8.83246179281558    5.24127570536856    2.14902144306657
Cl        9.24196489551520    8.11862846102603    3.28788993373753
N         5.72443893255402    5.86410944653222    2.33549463771357
N         6.07343935775298    8.31257978272752    3.29700045319584
C         5.66480734524267    4.62992120120887    1.85967767832272
C         4.46091204330661    3.98272619380309    1.59181320883275
C         3.29213261211695    4.70021131563045    1.85088116759490
C         3.36260875744509    5.98845537475850    2.34642225663720
C         4.60560331421362    6.57132783623503    2.58806152508438
C         4.43484796769994    2.59338673458511    1.07015007137767
C         4.79738461905817    7.92070848806897    3.10899814812695
C         3.76268168576016    8.80312241378337    3.41332994092357
C         4.05445829225185   10.06234670828708    3.90428705346638
C         5.38035965670197   10.45016213943688    4.09773346864244
C         6.36025558469692    9.51546701554502    3.76833203179149
C         5.74940545442140   11.78027311066324    4.64324743399536
H         6.61689550319454    4.14542623237573    1.68814328974548
H         2.33029414289210    4.24698193626838    1.66309156463134
H         2.45720008021059    6.53742064009928    2.54445647984305
H         4.11641654038363    1.90991573764503    1.85781499657992
H         5.41586592381704    2.28233041325139    0.72407860501246
H         3.71901771647218    2.50317598724589    0.25568136285232
H         2.73681524645079    8.50987542054624    3.26497490211000
H         3.25327638547823   10.74750076520954    4.13736257515710
H         7.41294243291553    9.73722850354900    3.88430006658158
H         5.77637044406155   11.73287774134155    5.73281757304233
H         5.01676729221491   12.53304270466550    4.36409931837954
H         6.73449358725670   12.08585224866288    4.30179391865454

