69
CSD_code = GOLTOR | q = 0 | S = 0 | Stoichiometry = C26H24CdN6O12 | MND = 6
Cd        2.82173830682923    9.79487104141211    4.89657107795165
O         4.43555157369643    8.55521668147514    4.10667354805639
O         3.96214610594596    8.86300609333737    1.95038649307167
O         2.90934733899390    4.92642770312294    4.68761351701091
O         2.41192074520516    6.70214576768323    3.58974935584407
O        -0.96504225564237    6.90215172555787    9.41237385371516
O         4.15970716208377   10.31071343556480    6.73871632261532
H         4.41373970807069   11.23020636414542    6.58308734466728
H         3.39315319117688   10.37708749367581    7.34499078487389
N         3.16131368774150    5.77979447517766    3.86465118686846
N         2.28424031058766    8.04185863182505    6.18033362566508
N        -0.41280006150618    9.07472404934071    9.08236598962550
H         0.30012826305423    9.72365488002143    8.76827521439457
H        -1.12368021252196    9.39253282136326    9.72108544148116
C         4.99547068940354    6.83203029146688    2.62610508848578
C         4.40161647060756    5.68550893322203    3.15558939248053
C         4.98143732693335    4.43095002691121    2.99877474519740
H         4.48828750188783    3.56961962882176    3.42336914211032
C         6.16039602231917    4.31439518543964    2.28953733567142
H         6.61407291868020    3.34492715313245    2.15518048850386
C         6.75526353656077    5.44523315380962    1.74744440831218
H         7.67651954076200    5.35259752247512    1.19250031468656
C         6.17998569622421    6.69386971721724    1.91751974271473
H         6.65319856173559    7.57361369881941    1.50902665135148
C         4.39767695901013    8.20506172531320    2.90966462835701
C         1.14841576738614    8.11570074504551    6.86125037406320
H         0.37108970430932    8.73966446927273    6.43782990501798
C         0.94517366427930    7.44264365889156    8.06092942347263
C         1.92435320879467    6.55926091452029    8.49796254733293
H         1.77081654904317    5.99506326565642    9.40570369795346
C         3.09202136559991    6.45085803138566    7.76225552551571
H         3.88177925463464    5.78320577659955    8.06724160335946
C         3.24765012119049    7.24862996232785    6.64071878003670
H         4.17748944049308    7.26464883048924    6.08824068602596
C        -0.24985089997603    7.74374765356004    8.91653767983320
O         1.20728788785382   11.03389624827677    5.68545438405208
O         1.68097907934028   10.72652854160663    7.84174206928599
O         2.72946910363959   14.66686898451291    5.10920916880855
O         3.22792368740796   12.89005058653961    6.20478308066300
O         6.61705639629071   12.68449890479470    0.38696552740473
O         1.48416930216123    9.28228459899845    3.05309633438737
H         1.22828764708026    8.36320737457307    3.20812514446465
H         2.25080543722176    9.21485214562314    2.44701144376060
N         2.47773355252917   13.81195720854191    5.93061350545742
N         3.36226026362567   11.54794048352224    3.61429544347593
N         6.05918803284104   10.51272678470291    0.71272407802638
H         5.34469094602155    9.86488649935428    1.02551701569522
H         6.76999626895728   10.19410835454254    0.07435573546082
C         0.64401965635401   12.75571852796031    7.16642662487427
C         1.23660793719702   13.90365201588717    6.63859643200314
C         0.65468707215660   15.15716921918189    6.79601556042461
H         1.14694473317060   16.01966699368700    6.37276057035381
C        -0.52519662862271   15.27123136948988    7.50411241359698
H        -0.98048770938368   16.23987425507678    7.63895931621849
C        -1.11888471816347   14.13895294640684    8.04449198876246
H        -2.04086229529218   14.22964734722367    8.59854895729002
C        -0.54145564903013   12.89138182754862    7.87390063509419
H        -1.01373944511383   12.01052796104345    8.28108478881403
C         1.24432820975150   11.38385091688705    6.88255211709157
C         4.49862002430678   11.47286054318658    2.93439397301617
H         5.27458290247519   10.84741566632766    3.35812570290073
C         4.70395648098129   12.14631209005649    1.73530165082277
C         3.72650470290099   13.03144811930336    1.29795076539170
H         3.88170849427425   13.59602513852207    0.39072783272628
C         2.55828579847140   13.14107771835064    2.03261236009821
H         1.76982781073801   13.81011579440069    1.72729974113579
C         2.40039998922897   12.34276777885994    3.15345627602720
H         1.46993457989781   12.32755694009611    3.70490793329873
C         5.89924318513336   11.84381860684998    0.88052551279476

