51
CSD_code = GOMCOB | q = 0 | S = 0 | Stoichiometry = C18H18N4O8S2Zn | MND = 6
Zn        7.87975138909698    1.64387533189815    6.09917424806171
S         4.68670905969338    1.45698700552066   12.71865241168036
N         7.22792291977274    1.81159220703195   13.00972454546323
N         7.36637205104047    1.57491534110101    7.97052111975849
O         7.43584398238516    0.95448268846729   16.21663087140368
O         8.31645964516142    2.93936387557841   15.57622982655667
O         6.73641664180481   -0.27203379553101    5.70098282893635
H         6.46538745064426   -0.47780972863801    4.80111743498230
H         6.01721026424718   -0.52990491684012    6.28536213015887
O         6.16870781432388    3.05737115230350    5.68674441838447
H         5.95443169038025    3.62505454917944    6.43366843305653
H         6.31904453651364    3.63499800863720    4.93159046743746
C         7.62094869725018    1.94577450354122   15.51913904114228
C         6.70388874982627    1.83758424959970   14.22969509679835
C         5.35027725390902    1.62336819774871   14.28919815895016
H         4.72506843846056    1.57538624237703   15.15706521846352
C         6.34019188585907    1.57571042413126   12.08093212142175
C         6.07253654103817    1.50972427844972    8.37149688583289
H         5.33783871149634    1.47713164363725    7.57947719744896
C         5.68068843380165    1.48669732365016    9.67790738050359
H         4.63402813034037    1.43350947238306    9.93208108947965
C         6.64822522601203    1.53700597856800   10.70569451761948
C         7.99833151919002    1.61126595357412   10.28451038644873
H         8.76766392787763    1.65992469402020   11.03689351310098
C         8.29946858778674    1.62561213402755    8.95735334838109
H         9.32797055035902    1.67043664669945    8.62850795573817
S        11.05371122007687    1.83342636160910   -0.53048258898126
N         8.51218783387114    1.47388411649017   -0.81190326132437
N         8.38986812862390    1.71133092551033    4.22700621830461
O         8.28864719045617    2.32480749304564   -4.02023318142723
O         7.41639210012490    0.33930088135978   -3.37048617935143
O         9.02751151982849    3.55602105013168    6.49949605772087
H         9.28749526421370    3.76299331055121    7.40248527871428
H         9.75908115349352    3.80164812858718    5.92504991502102
O         9.59462040945988    0.23463199066881    6.51200223519190
H         9.80661193488857   -0.33401552231151    5.76514768979644
H         9.44698378308122   -0.34210678838669    7.26837035846133
C         8.10942315031392    1.33502033863675   -3.31916765866961
C         9.03166006244654    1.44815837043991   -2.03383012347260
C        10.38457740000011    1.66493811507247   -2.09855430818050
H        11.00652666639323    1.71365648089184   -2.96871816978888
C         9.40297018288289    1.71176871514186    0.11341205436385
C         9.68234634150840    1.77683182434396    3.82211624099446
H        10.41956722102294    1.80901326735708    4.61180457690321
C        10.07022200293473    1.80052770503684    2.51447157071670
H        11.11608268803542    1.85403818395512    2.25708538588966
C         9.09952065244668    1.75026163702542    1.48976667051807
C         7.75078813367939    1.67543946815302    1.91505299864903
H         6.97919056251373    1.62669430323256    1.16499918634411
C         7.45373452329629    1.66073577796541    3.24315050329063
H         6.42629577613140    1.61577040438139    3.57520788311038

