81
CSD_code = GOMCIW | q = 0 | S = 0 | Stoichiometry = C44H30N4O2Pt | MND = 6
Pt        0.00001178296645    0.00002670723036   -0.00002889111146
O        -1.87394023824518   -0.55890264227020    0.61754163144926
H        -2.21879782283586   -1.22206654563570    0.01356492573005
N         0.75452362739307   -0.57074169910875    1.79434780151141
N        -0.34290614848632    1.85911801522216    0.73940597525964
C         1.26186322788374   -1.79377660357957    2.10024768036045
C         1.74844017187339   -1.78409713243161    3.45090968271440
H         2.22093589712885   -2.61401490236552    3.93814268431289
C         1.51091179067281   -0.54818005010209    3.94673315263792
H         1.75116195601301   -0.16692715398389    4.91957778734840
C         0.87707598699671    0.20655763836039    2.90280201588665
C         0.49243867534995    1.53933113543870    3.02982205623131
C        -0.07958386691077    2.28716675335031    2.00306537994613
C        -0.50260101442639    3.65147691451224    2.14177968684210
H        -0.42110077501355    4.23052861497735    3.04032559565693
C        -1.01334051467191    4.02946255158835    0.94723005919735
H        -1.41512957636268    4.98428080482051    0.67122265316832
C        -0.92206062758571    2.89379582815840    0.07458794424153
C        -1.35135500149813    2.89311578587429   -1.25027174331188
C         0.69514159375071    2.19722994411304    4.33954763017203
C        -0.00276197281223    1.75698134191396    5.45975110689117
H        -0.69860490705820    0.93720998814559    5.35868816769418
C         0.18176609639018    2.37270613652127    6.68438710599016
H        -0.36824724099472    2.02649086723226    7.54717612955539
C         1.06886808702651    3.42925482113719    6.80600603011232
H         1.21392921003804    3.90759989550023    7.76322668872503
C         1.76945879764936    3.87046254117735    5.69596005542743
H         2.46433813779884    4.69229091137797    5.78660770522444
C         1.58253265414049    3.26100005570338    4.46833180332789
H         2.13323314590746    3.59985923886580    3.60290783351365
C        -1.94635867026153    4.13712784366172   -1.78785691980295
C        -3.15526743410570    4.61264476139236   -1.29007491173622
H        -3.66057080656119    4.05911104081529   -0.51234510765343
C        -3.70999495484730    5.77416803750360   -1.79659468217914
H        -4.65153216382123    6.13304612441078   -1.40746655594759
C        -3.06173551060721    6.47589753354795   -2.79936571040785
H        -3.49462565594004    7.38410130835434   -3.19172566226290
C        -1.85690379726223    6.00902194736410   -3.29781758493748
H        -1.34695728302773    6.55409793009823   -4.07858470264030
C        -1.30266185945154    4.84421820052424   -2.79838692047699
H        -0.36087035703701    4.47934541155621   -3.18137884645721
N        -0.75453291187274    0.57075187864407   -1.79436882846555
N         0.34290552004843   -1.85910134373498   -0.73941263655727
C        -1.26186920970974    1.79378568086204   -2.10025987825641
C        -1.74844551975430    1.78410418671218   -3.45092194939072
H        -2.22093727502219    2.61402203448558   -3.93815610366173
C        -1.51091822961425    0.54818733678902   -3.94674588582721
H        -1.75116471573253    0.16693601467320   -4.91959004958683
C        -0.87708297156287   -0.20655000192840   -2.90281612252517
C        -0.49244400891139   -1.53932367020501   -3.02982918276915
C         0.07957722300883   -2.28715664705340   -2.00306971277518
C         0.50258999343718   -3.65146878694719   -2.14177999785320
H         0.42109187739796   -4.23052191814255   -3.04032693784591
C         1.01333102152364   -4.02945435906070   -0.94723044441364
H         1.41512223380563   -4.98427280356744   -0.67122318719247
C         0.92205486223458   -2.89378573207760   -0.07459184754823
C         1.35135197998276   -2.89310891685962    1.25026634627222
C        -0.69514628015780   -2.19722929997900   -4.33955097869504
C         0.00275624847627   -1.75698157259167   -5.45975541192295
H         0.69859958857508   -0.93721211090527   -5.35869158961686
C        -0.18177090895289   -2.37271127179778   -6.68438948717897
H         0.36824322907392   -2.02650055708020   -7.54717780638286
C        -1.06886820303059   -3.42926588986493   -6.80600299214761
H        -1.21392890134927   -3.90761499974673   -7.76322160972553
C        -1.76946107153322   -3.87046900987561   -5.69595639178210
H        -2.46434193520023   -4.69229652159478   -5.78660274689946
C        -1.58253817660549   -3.26099963694867   -4.46833192906997
H        -2.13323896090810   -3.59985749843562   -3.60290644416397
C         1.94635579978181   -4.13711974811705    1.78785593245162
C         3.15526583690450   -4.61263731106458    1.29007577637113
H         3.66057115477747   -4.05910245403697    0.51234797564730
C         3.70999211007010   -5.77416243646391    1.79659237196844
H         4.65153018968784   -6.13303956179893    1.40746539385593
C         3.06173099682625   -6.47589437713727    2.79936075381308
H         3.49461896352312   -7.38410036261072    3.19171812279940
C         1.85690178798661   -6.00901615716777    3.29781457257413
H         1.34695461785158   -6.55409328710585    4.07858058053922
C         1.30266062429060   -4.84421086471612    2.79838561056860
H         0.36087019575135   -4.47933954404802    3.18138230314767
O         1.87423337109021    0.55853496201437   -0.61708275129145
H         2.21865721465498    1.22225665750936   -0.01385156666519

