49
CSD_code = GOMLEA | q = 0 | S = 0 | Stoichiometry = C15H27INiO3P2 | MND = 6
Ni        4.11473248517566   10.33857906593886    2.39127114630547
O         6.16307457220514   12.18309403110644    2.04295076474408
O         4.99336472909578    8.58869024633157    2.81173623953471
O         6.79118486137310    6.30622492441621    3.26674235283720
P         4.22680434265223    9.80317563282199    0.27256924016195
P         4.11403912219538   10.82507621126990    4.52351223682964
I         1.81474999771024    9.13590901232770    2.61775690961811
C         6.83998014152464    9.96026669067523    2.55706110819213
C         8.23242982938333   10.17201646180927    2.52143404396623
H         8.60760170402683   11.16212858586942    2.31122965052008
C         9.05985924917442    9.10821834873371    2.74647364155647
H        10.13108783473258    9.23344869601606    2.72559369257592
C         8.52399974251428    7.84228269420669    3.00947143379372
H         9.18135197143625    7.00333940535316    3.17962954246855
C         7.16764026279304    7.60116345851241    3.05336647232015
C         6.26951652450159    8.68885812338509    2.81820879354633
C         5.94212125926676   11.03565371534075    2.29200651089116
C         4.33307580174007    8.00882850654948   -0.04709825697599
H         3.48771985955024    7.50849952778788    0.42409238517196
H         5.25853686375907    7.60652727066907    0.36289685209951
H         4.30768961938718    7.84051884398810   -1.12417716261009
C         5.63574705483276   10.42778621866944   -0.72155805243736
H         5.50968226329168   10.12073643459512   -1.75963801560151
H         6.57180040945592   10.02322824801360   -0.33708045039254
H         5.67844825668765   11.51498033339441   -0.66823159434241
C         2.81395540323216   10.27025294376991   -0.79036102254962
H         2.98620604347833    9.87359736949697   -1.79071218090094
H         2.71728259994878   11.35277506994972   -0.84211775308893
H         1.89505855495093    9.85031192910466   -0.38438509017462
C         4.24452383199924    9.36782560996127    5.61550958228935
H         5.22522350419811    8.90722018752702    5.50128491251647
H         3.47594469141992    8.64428079963480    5.34545105931778
H         4.10802786723677    9.68481624822244    6.64980780340901
C         2.62851547748383   11.64926673350756    5.20034707422113
H         1.75329780837310   11.02494521443179    5.02790196547729
H         2.47512033822001   12.61383998434109    4.72032522970733
H         2.77048320116396   11.79518147952325    6.27114214811623
C         5.44326640781348   11.89414180687058    5.19741589754736
H         5.26134962358313   12.07105425388897    6.25731564403559
H         5.46202275826596   12.84658279101690    4.66916624403470
H         6.41153499876835   11.40949083359424    5.07394290540112
C         3.37718920967404   12.12597561730778    1.93932892992799
H         3.67898252980853   12.86486094594802    2.68658325739330
H         2.28769246685778   12.08708590032809    1.89147305868436
H         3.76886197103551   12.46943797953918    0.97818154745209
C         5.47306813285993    6.01555344997617    3.68666842228318
H         5.26998290425736    6.44611299679599    4.67209343173586
H         5.42624307782982    4.92944396164136    3.75328320264035
H         4.72222783907409    6.37241520585350    2.98083424574931

