37
CSD_code = GOMLUP | q = 0 | S = 0 | Stoichiometry = C13H15Cl4NO3Ti | MND = 6
Ti        6.83207049748595    5.19581319527731    2.14381790448311
Cl        7.17290532325373    7.10882642236270    1.26125541316165
Cl        8.20882192983874    4.00611222157835    0.77460494549305
Cl        8.15869511652950    5.33325470201665    3.83155227383924
Cl        4.93843372980352    5.69172506054227    3.20012585741224
O         4.52001795496563    3.27446353558106   -1.00585873963098
C         5.09321412674546    3.53792879282212    0.15398085753220
N         5.22823682790648    2.36058921900584    0.89037901597266
C         4.38312444426541    1.33851131796639    0.28662054376463
H         4.84828477212519    0.35440795037235    0.34954666144977
C         4.31065419148969    1.87144551967852   -1.14930064702760
H         5.10214512720462    1.46794161336313   -1.78971463107469
H         3.34005394279114    1.71924822286736   -1.62273148816908
O         5.43168363063905    4.64393965942882    0.49467204746793
C         5.93726534224500    2.27612220353983    2.07242149771702
O         6.32094573027919    3.28659561628307    2.63819375570051
C         6.34242807289731    0.91174246653806    2.55585566586296
H         6.91336759271860    0.44138508013433    1.74943047335478
H         5.46700631156668    0.29557221227140    2.76580565287860
C         7.21057125800612    1.04912506254459    3.80256270346877
H         8.07263098214508    1.67917922385221    3.59041674070229
H         7.55410027298434    0.07217688720257    4.12926057729650
H         6.64154958173834    1.51253309599644    4.60455030266453
C         2.99128712806135    1.35433772781343    0.96222421778666
H         2.42880445683232    0.48822306624124    0.61145891529672
H         2.46885157974506    2.26159915292640    0.65047139673062
C         3.10889361643304    1.34514098550253    2.46277262564463
C         3.34923684628422    2.53311503093536    3.14535746233618
H         3.36160786915469    3.48130221715602    2.62420774573417
C         3.56009484900752    2.52667826535258    4.51478109945372
H         3.76292425145868    3.46111182352373    5.01449989792766
C         3.51462968673847    1.33401863040665    5.21571049937247
H         3.67776969569162    1.32474431176056    6.28242962570121
C         3.24429104951064    0.14977579414658    4.54755313741950
H         3.18873061945804   -0.78000141315657    5.09357219551526
C         3.05081806461929    0.15341064225837    3.17652212055325
H         2.84745352738312   -0.77309551610324    2.65749167621425

