49
CSD_code = GOMMUR | q = 0 | S = 0 | Stoichiometry = C20H16N8O4Zn | MND = 5
Zn        4.19153091737648    2.03491643780356    0.56596768932150
N         4.41706769401919    0.74760811763887    2.27940167062198
N         6.28890335808460    5.28698872043683    0.65200687790681
H         4.64912590749790    5.43510628235346    2.14195809773978
N         5.76966568952333    3.10370992554043    0.83430709502196
N         3.79668956760108    3.22901850313701   -1.05736288210448
N         4.03836926780587    5.37280329316145   -1.46969622292088
H         4.33972679325591    6.32367280301007   -1.33824703847528
N         3.07025707259320   -0.59076105665756    3.38461159998187
H         2.26743163251615   -1.15759840167670    3.60026618508048
N         1.75616089922509   -1.09831099192193    0.56372771230586
H         1.16074128520496   -1.60389573666414    1.19799268276477
N         3.25279943423272    0.33038316318450   -0.16591765996243
O         1.30956295993240    1.41025799011597    2.20577262379582
O         2.79282069070352    2.94470990814434    1.57170564249398
O         3.90914820930748    5.21111334844496    2.73935241598699
O         2.63386107323071    5.74073416835916    0.97874854117831
C         1.76267058668923    2.55961508694227    2.20140311926107
C         3.39639207324008   -0.08152252910722    2.17599894912123
C         2.79151948555804   -0.30124129896524    0.89861216221895
C         1.08636826901082    3.63280654430803    3.01141582099544
C         5.51562997423988    4.29077952402693    0.22697442195743
C         2.74730399417433    5.28282717675775    2.08957433017255
C         1.58502102498634    4.93273339639431    2.96768005031014
C        -0.01492906324482    3.34153633099523    3.80539382363953
H        -0.38265316787907    2.32595962781975    3.81661738994830
C         4.47600967686598    4.32741634095084   -0.74772463165531
C        -0.12050004200884    5.62753874229901    4.51040601443462
H        -0.58874625281555    6.40673884252786    5.09410928808343
C         4.74128540976222    0.80193062423021    3.59239485952427
H         5.53529782541807    1.42891267572551    3.94222583537578
C         3.90985678459823   -0.01921476924734    4.29859290596177
H         3.84822157321798   -0.24020730145383    5.34384335564584
C        -0.61745273402557    4.33475479044542    4.55436776409159
H        -1.47415071243298    4.10539399916746    5.17167780580150
C         6.78074061547094    3.37430704221120    1.69165721174061
H         7.21743124588936    2.61506524183648    2.31023895518657
C         7.09611901818586    4.70988966454522    1.57097422904880
H         7.84196951288086    5.28463473574180    2.08465977166615
C         2.48157299334528   -0.05402682599803   -1.21187458225501
H         2.65964107270395    0.32297764340250   -2.19784663551797
C         3.00967947154747    4.93024952219856   -2.25148066179712
H         2.47085569737812    5.57912188142469   -2.90997911938940
C         0.97475397833245    5.92803085803385    3.71785007534370
H         1.35846422680823    6.93690359041769    3.67921189223600
C         1.53926873116850   -0.93868017764708   -0.77648358905480
H         0.75548164753384   -1.45417613896902   -1.29144926497253
C         2.87662522475583    3.60067419822598   -1.98799083217454
H         2.18108940652884    2.89711448635972   -2.39954574567557

