86
CSD_code = GOMNUU | q = 1 | S = 0 | Stoichiometry = C31H48CuN6(1+) | MND = 4
Cu        6.60734790860224    1.10125511714560   13.59050000377715
N         4.49312132156345    1.03082986961245   12.79605558937925
N         5.76925342288213   -0.30633070114894   14.90392688001773
N         5.63706740954495    2.30740977864144   15.01023765682551
N         7.92759090967679    1.02345099904101   17.14050970542655
N         9.14285667603214    0.16902017153715   12.25037164771249
N         9.06776018217117    2.31177129546746   12.33230032734307
C         3.94466268477596   -0.21658445993658   13.33503763011189
H         4.25796999270864   -1.04623321688088   12.70080278466331
H         2.84594472111549   -0.19903335163122   13.36147741346731
C         4.46489021655406   -0.50136391859862   14.71843435282050
C         3.63899237339833   -0.94304324365942   15.74018594084618
H         2.58790590124391   -1.10541165051829   15.56064552516305
C         4.18850930503639   -1.15717860630732   16.99535014461545
H         3.57023670799185   -1.49914347215446   17.81101933736535
C         5.53532142155203   -0.90754678249555   17.18700827558260
H         5.99644780858237   -1.03353277471879   18.15249755532885
C         6.29972936617715   -0.47139016650612   16.11131866398465
C         7.75818631310000   -0.14624407902854   16.28901780218552
H         8.23875770867604   -1.00629612495134   16.75102847136904
H         8.19290558710957    0.01519774153481   15.28818058193169
C         3.82053822514913    2.16433352670781   13.43622639221217
H         2.72994650332999    2.02899491641701   13.45952227192620
H         4.03988803640194    3.07228424523635   12.87395278565256
C         4.31840040227387    2.38548716783523   14.83891413885583
C         3.45813719594198    2.65562440249955   15.89151616639672
H         2.39522298973446    2.72698534042840   15.72266511608909
C         3.98991441462388    2.81633311934829   17.16213126376760
H         3.34491699084301    3.02430287888057   18.00188865536348
C         5.35591420255409    2.68711570191281   17.33567122864718
H         5.80729184813720    2.77525156782737   18.30993992605606
C         6.15447200113275    2.42355860484383   16.22905484108696
C         7.63916540099156    2.23415985217129   16.38409629664274
H         8.08285973192904    2.19794173688189   15.37480976234915
H         8.03258125025519    3.09886059832993   16.91448086431858
C         9.15948533477707    1.04964433443369   17.95297561474620
C         9.20225465651475   -0.20677194141464   18.83575897536932
H         9.47701910656365   -1.10005586085208   18.28106479356080
H         8.23533761424352   -0.36227488305674   19.30633191608250
H         9.94581678102909   -0.07784388963326   19.61688186648122
C         9.11227581688516    2.25612876690800   18.90249775523756
H         9.33429792001086    3.19352913723707   18.39911874220090
H         9.85619310055562    2.13274254559034   19.68417937092796
H         8.13398025752529    2.32394244928437   19.37037944113426
C        10.42960571234161    1.12169872570216   17.09323529726262
H        10.50849414256771    0.25391851811425   16.44183489307790
H        11.30738879813815    1.14755505220133   17.73255827230015
H        10.43022899473731    2.01859499426818   16.47727601769881
C         4.47817915070303    1.09504620567433   11.31016629413809
C         5.17365483188974    2.38656721456743   10.86054155520293
H         5.44724801315254    2.30902118197698    9.81210354326907
H         6.07685717538165    2.53223900168982   11.44838216123075
H         4.53443086083248    3.26012487947302   10.95611080603688
C         5.29505450703515   -0.07672950598865   10.75117134840827
H         5.54541381758671    0.11518425056914    9.71161785460669
H         4.74932687623152   -1.01612331276362   10.77619432821832
H         6.21581594697784   -0.17661840841625   11.32078516124182
C         3.06000090437709    1.04999404036389   10.73031789597581
H         3.11365683333503    1.10082498592138    9.64624491451712
H         2.46294832324684    1.89062650095127   11.07477995053713
H         2.55122336493117    0.12686783416471   10.99657106882177
C         8.37064379648455    1.20113222099946   12.64805723513052
C        10.30207751397324    0.62787710134590   11.68923197035097
H        11.06035245170550   -0.01887388203527   11.30199945738786
C        10.25476175694895    1.97918692551725   11.74091648766050
H        10.96518859948134    2.70490015515770   11.40651501065765
C         8.81138901216431   -1.23324304712700   12.41640940547824
H         7.82318952945558   -1.25271346682942   12.89424031425321
C         9.82742138800573   -1.90913348038844   13.33555978305422
H         9.51784533162160   -2.93032555447807   13.53678872800358
H         9.90107951171881   -1.37804329537876   14.28155456226876
H        10.81177641085982   -1.93469861150593   12.87507838464712
C         8.74262172653233   -1.93147042859748   11.05995180253326
H         8.07138560353382   -1.40337205987990   10.38743480338149
H         8.37550277706827   -2.94535512380332   11.18837095331058
H         9.72575452469002   -1.98179753731892   10.59924068389751
C         8.63780142411818    3.67056190056777   12.60130712178486
H         7.65217748077645    3.58392963372949   13.07710049272580
C         8.51428957159940    4.45942793184475   11.29958749595151
H         9.48870100085063    4.60628837826159   10.84096690021558
H         8.08375520866367    5.43547419788156   11.50237573990213
H         7.87329121400240    3.93868912722360   10.59272137682070
C         9.60599105742854    4.34751372891821   13.57005665200459
H        10.58339096923273    4.48132369902903   13.11370632625148
H         9.72353280555480    3.75243504695216   14.47261266450490
H         9.22268336016875    5.32441753918012   13.84905981025162

