79
CSD_code = GOMNUT | q = 0 | S = 0 | Stoichiometry = C30H24N18S6Zn | MND = 6
Zn       10.37511893389486    6.26805872499609    6.11487386959131
N        10.14760567059979    8.26275034869203    5.50014464934208
N         9.60171457242451   10.47957866002420    4.98263680443405
H         8.92714561157243   11.23383979011200    5.02785299468762
N        11.62999776973212    9.62983200028530    4.31130598559309
H        12.51861487935742    9.73124931286594    3.83772455350800
N        11.31552748584717    6.90186530340160    7.93822543559893
N         9.20225154366966    8.74977667756216   11.08985933104080
N         8.79768933159563    9.60826107033717   12.01193630638257
N        10.94895553049559    9.89110453692114   11.75290584590134
N        12.22724275103444   10.43015007780851   11.85420364539282
H        12.75108672610993    9.99633976874740   12.61268592543438
H        12.72593438752989   10.31235351988171   10.97665165339497
N         8.40109018634104   12.34481082776363   15.13717393911768
S        12.37673382982747    7.14979785891657    4.82003291087198
S         7.76597399455960    9.07997770191095    6.22197405664651
S        11.17938496046506   12.14915167910234    3.68398651968231
C        11.31388061846087    8.42793690380473    4.88435585209307
C         9.24551452626132    9.26274947578876    5.54507915983757
C        10.78410996824343   10.71083237622234    4.34857669281538
C        12.58476686310727    6.56416693761192    8.15812412315103
H        13.06191123092744    5.96134359298025    7.39815041458694
C        13.26446224866646    6.95001329780983    9.29966118540170
H        14.28536816689644    6.63792385954121    9.45123180226281
C        12.61279686986620    7.72792322919245   10.24112938262410
H        13.12175094041966    8.00075162594180   11.15482453658665
C        11.28952994102586    8.10184587099768   10.00424978290995
C        10.68168824342816    7.64251401396132    8.83198224501385
H         9.64586477552216    7.88594399610897    8.63870920995036
C        10.49557159306022    8.89010987251971   10.92534689741191
C         9.82427128492940   10.32148666512111   12.41563865549324
C         9.74290539911075   11.36044279648805   13.41831572399825
C        10.74255019965872   12.30610651936565   13.64404131387453
H        11.64533955397422   12.30473513809316   13.05262575753548
C        10.54440467409668   13.25762565369805   14.62990969597186
H        11.29490825682050   14.00657349862673   14.83024009794485
C         9.35952198902971   13.23303822958909   15.35008489085179
H         9.16177842804565   13.95589419904720   16.13034186919360
C         8.58309241613821   11.43891048423754   14.20140408486322
H         7.78421271173335   10.72822165400622   14.04500340358046
N        10.60266971693205    4.27338283380175    6.72959653521072
N        11.14861740076731    2.05656088602014    7.24707091526252
H        11.82321282753934    1.30232315491150    7.20185844747692
N         9.12028941110642    2.90622821610045    7.91836587954516
H         8.23166338657338    2.80477198538152    8.39192209868674
N         9.43461641603555    5.63433002450867    4.29153384191848
N        11.54769178276019    3.78654146147823    1.13968721927949
N        11.95218511021314    2.92809796396476    0.21754230426934
N         9.80091744916024    2.64532373313263    0.47664170832624
N         8.52260794065983    2.10632670747389    0.37537051619979
H         7.99873546098890    2.54020430556218   -0.38305256248415
H         8.02396698126779    2.22407312609401    1.25295778975314
N        12.34853360158184    0.19176666117891   -2.90791894478645
S         8.37349526553869    5.38625503416394    7.40969083237825
S        12.98436929714852    3.45626226438246    6.00786605485815
S         9.57095283426799    0.38690003680681    8.54561521321037
C         9.43638505446816    4.10814736625642    7.34535498103253
C        11.50479941739267    3.27341709919866    6.68467583030747
C         9.96620852089619    1.82525253219772    7.88108530615086
C         8.16537156692502    5.97205819228475    4.07172386944622
H         7.68829793625486    6.57490645372991    4.83172276943880
C         7.48561914012590    5.58631854026432    2.93018470198012
H         6.46472679345790    5.89848207001130    2.77866004034143
C         8.13722083474812    4.80845326470098    1.98863607940376
H         7.62822035697964    4.53570059949650    1.07494365553887
C         9.46048705900060    4.43448020090023    2.22543197648701
C        10.06839855168997    4.89373506127580    3.39769285167609
H        11.10420790717101    4.65020810491402    3.59093609934984
C        10.25437569098189    3.64624224041053    1.30425172958482
C        10.92555776183528    2.21494240281759   -0.18616689530960
C        11.00684209891310    1.17604815390703   -1.18891410766961
C        10.00713989968193    0.23044527128724   -1.41467548841353
H         9.10438308432388    0.23179694572585   -0.82320986709800
C        10.20519591117744   -0.72099946652072   -2.40063520173720
H         9.45468112459876   -1.46992770542035   -2.60095686930485
C        11.39003834132443   -0.69639371435026   -3.12087426269001
H        11.58773867805581   -1.41922129448455   -3.90116686610560
C        12.16662799961284    1.09758506956147   -1.97204784214259
H        12.96548232340287    1.80828646673419   -1.81570154383920

