86
CSD_code = GOMNOO | q = 1 | S = 0 | Stoichiometry = C31H48CuN6(1+) | MND = 4
C        11.22375074604500   25.34242907592109    3.96285608052918
H        11.97570510258311   24.64958035077785    3.58425080134431
H        11.72754484011516   26.27963412175009    4.23891385722689
C        10.26802220169314   25.61351418463491    2.83225108352212
C        10.29454095211130   26.79845817250111    2.11356411134054
H        11.02084289223643   27.56130207989916    2.34587449436932
C         9.36224375163941   26.98656736752793    1.10437304740729
H         9.35650836081152   27.89976980018541    0.52947457774721
C         8.43077755641127   25.99344361826552    0.86127446098087
H         7.67115136520722   26.11017413432460    0.10631877787178
N         9.10141447479961   20.44875955318712    3.57843767578654
C         8.47286450006509   24.82975745118564    1.61994076042148
N         7.81456565235472   20.81852846009279    5.25520500968080
C         7.45159445601562   23.74390189455475    1.41512477965955
H         7.44328254138601   23.48748324123933    0.35753602763453
H         7.77311484640314   22.86340376685893    1.99642104856243
C         9.78719010864903   25.76583741565295    5.82073868404021
H        10.38610326571268   26.67362323569765    5.98035743800000
H         9.48573001453703   25.37954832833183    6.79462733685299
C         8.52714825039053   26.13126773623226    5.08359319307966
C         8.12575161977174   27.44734268657894    4.91739438581307
H         8.71160131564897   28.25283571897703    5.33136339644406
C         6.96882058609651   27.70514968413753    4.19751723978895
H         6.63306534905322   28.71973678861290    4.04797841315234
C         6.26601755334222   26.64231291015259    3.65985932620468
H         5.37883671838036   26.79936472264334    3.06914842845558
C         6.72798860086526   25.34943376973091    3.87651738304041
C         6.01466426268530   24.17113006850585    3.27035285470452
H         6.45311350160216   23.25313122361804    3.69697077271210
H         4.96694772375423   24.23134933652040    3.55726032398410
C         4.99942720157792   23.60588312925420    1.07070397926785
C         5.16521224577354   23.93859182404466   -0.41979642884053
H         5.94130689288567   23.34765952349019   -0.89877954497651
H         5.39701334775380   24.99345183260995   -0.53932142520966
H         4.23795615957561   23.72960655984732   -0.94532950762411
C         3.68774042190357   24.26259749291134    1.52609436170703
H         3.81441654895526   25.33922812908629    1.60066224909050
H         3.33685340899546   23.87520551535091    2.47922035476566
H         2.90869597616568   24.06164663509569    0.79637036032988
C         4.90161704185278   22.08480282890040    1.25678300049534
H         4.04305926328858   21.70043352207973    0.71358493990182
H         4.78159728034163   21.83121957906314    2.30818073163504
H         5.79267908175673   21.58737721460632    0.87993625930023
C        11.45674019566408   23.95343069304514    5.99158575642500
C        12.10680651198190   22.83333456742494    5.16937054842170
H        11.35125316390224   22.36090648877502    4.54609087086575
H        12.52750522332733   22.08662828875796    5.83690794542440
H        12.91999373892617   23.19166695286573    4.54392385537089
C        10.62856235151800   23.28223344126763    7.09482311612205
H         9.72473963711823   22.86155927725358    6.66061400430889
H        10.36158462450902   23.96964404668769    7.89300561028436
H        11.20472795879225   22.48063025658656    7.54826037609299
C        12.54927638146651   24.81919922405244    6.62904582937513
H        13.18361842925430   25.27773048747263    5.87458640983212
H        13.17783412179431   24.19703600886287    7.26031524463423
H        12.12281009442320   25.60243259842714    7.25078230300405
C         8.62321749083260   21.43282827546770    4.36747363246429
C         7.79248839213614   19.47048362652416    5.02843528621302
H         7.21806763087219   18.78706793493949    5.61690560661880
C         8.60401857748586   19.23731671706233    3.97095825993296
H         8.85304962157869   18.31730620586121    3.48631717211767
C         7.05507219758902   21.48951862777084    6.29279586439462
H         7.29739052438040   22.55611718343130    6.19792848117995
C         9.99852643422538   20.64326326937885    2.45543210613388
H        10.19595848249508   21.72243694150719    2.41410652040899
C         7.47450735170749   20.98586862245016    7.67212956113395
H         7.18890599063596   19.94607218393817    7.80868858020283
H         6.98631215456984   21.57626477484625    8.44172673256127
H         8.55049676111676   21.06973794824343    7.80224983808059
C        11.30691876496845   19.88811940319825    2.67908344228245
H        12.01075732628692   20.13356315010362    1.88941040567296
H        11.14183186861955   18.81389692136201    2.66583118054127
H        11.75023543420154   20.15892749115546    3.63397524008368
C         9.32197601474151   20.20542555736499    1.15755994470518
H         9.95486184394074   20.45609629313842    0.31149543217965
H         8.36608399522967   20.70903928351555    1.03478125687035
H         9.15127957014013   19.13193064853425    1.15041212155643
C         5.55774800180713   21.29204720884475    6.06291707507343
H         5.27820551628514   21.61077306079347    5.06151332244830
H         4.99580938463978   21.88148083934104    6.78121976528581
H         5.27938724088624   20.24838747543475    6.18488415494305
Cu        8.96518397836165   23.39995501549537    4.19473379126285
N        10.54699624960234   24.73343253362641    5.11087289599870
N         9.39479565194047   24.64562257272406    2.55946336787601
N         7.81851641027043   25.11283545181932    4.59849388583048
N         6.12687072459840   24.19547776599527    1.81858810560436

