86
CSD_code = GOMPAC | q = 1 | S = 0 | Stoichiometry = C31H48CuN6(1+) | MND = 4
Cu       -3.84394094891672   25.91366830434406    2.57852760901837
N        -5.52367392898215   26.73884339722749    3.84772384628677
N        -4.34489476338463   24.20899611415547    3.69848047239378
N        -2.81388150099051   26.22313250050934    4.38126804359222
N        -1.05773199159775   23.49275684978405    3.42703750906238
N        -3.71664383162172   25.58240300537113   -0.41980193006683
N        -2.48032134889658   27.21313087282683    0.22570725249274
C        -6.21717419694389   25.56616164475736    4.38583341110126
H        -6.95731022310411   25.22437230873395    3.66188495522427
H        -6.74043889206016   25.80095331750478    5.32360021954383
C        -5.27741695351248   24.41530881538451    4.62662069129687
C        -5.38242000336870   23.60959178121909    5.74997596031338
H        -6.15397277111456   23.79200679923444    6.48129528145655
C        -4.47106926666813   22.57868668706376    5.91899829307162
H        -4.52754667600377   21.93579521311484    6.78386321949640
C        -3.47874980332093   22.40300727661378    4.97168024879411
H        -2.73260267501336   21.63322947660993    5.07755323508496
C        -3.44014059754390   23.25022582723054    3.87090535939408
C        -2.34321092030639   23.12392015078656    2.84910311140637
H        -2.31078754450245   22.08812040629317    2.51642942486803
H        -2.60144518546665   23.76817169245928    1.99172886675373
C        -4.82202947564976   27.42085531172381    4.93876323875461
H        -5.47477223198552   27.57525981659327    5.80942886904550
H        -4.48087760747476   28.39457435632115    4.58685800891562
C        -3.60072586708469   26.65299342913508    5.36657204808624
C        -3.31139581627128   26.39944976704789    6.69770178704796
H        -3.95911767231226   26.76826821002341    7.47734241590206
C        -2.18421094694766   25.65072759754728    7.00264096919791
H        -1.93474254429905   25.43300736036102    8.02973172929474
C        -1.39843853842108   25.17350644175890    5.96943458453049
H        -0.53058820363483   24.56465217607028    6.16181778123623
C        -1.75062692254239   25.47633983639195    4.65918558607008
C        -0.94538020296589   24.94218857543903    3.50503553679986
H        -1.31008903541738   25.42826466278708    2.58440038848837
H         0.09360402321257   25.22104747750064    3.66688478625874
C         0.10969258644688   22.77250243978635    2.88270768520101
C        -0.05958408090438   21.27369113767963    3.17311671720037
H        -0.83132723848989   20.81000166682721    2.56505124796220
H        -0.30168689779378   21.12796580087681    4.22232546753857
H         0.86960776070198   20.75360013401891    2.95893606959772
C         1.38190549878043   23.22088996604953    3.61679037227307
H         2.17234834971828   22.49598430534144    3.44491335330396
H         1.19985317894495   23.27635469891413    4.68662666361919
H         1.74920430244574   24.18096525769567    3.26299980041075
C         0.28820068934585   22.99840765275062    1.37426311519812
H        -0.55785168571362   22.60420019673890    0.81585277712991
H         1.18633502021329   22.49460465008773    1.02868591414316
H         0.38547478884181   24.05963105772770    1.15339786801474
C        -6.40584484376556   27.63335712321441    3.05186826816721
C        -5.56481674980182   28.76967492131270    2.45735793500164
H        -4.64651320374096   28.35881144243005    2.04456383981428
H        -5.32368046160788   29.53668603263144    3.18830490041257
H        -6.12014334975108   29.25610397669857    1.66027293671250
C        -6.98616812145564   26.83695289947688    1.87566947826978
H        -7.35977990108621   27.52079283612636    1.11884018358750
H        -7.82027253843968   26.20532608711308    2.16933574474474
H        -6.20405607193973   26.22191360346015    1.43703669794384
C        -7.54932651895402   28.22786011828103    3.88164560233603
H        -8.15995083120179   28.86458838499944    3.24732340409850
H        -7.17110587098051   28.83587889951123    4.69961352308055
H        -8.19006965641488   27.45064558919016    4.29050025650020
C        -3.33178977219639   26.26825989327160    0.67560841968263
C        -3.11995496408596   26.09423170577550   -1.53833402888172
H        -3.28448765013069   25.70473541600611   -2.52044884152279
C        -2.34027007633907   27.12244745537423   -1.13125798915159
H        -1.71444547726314   27.77631393415283   -1.70059330071079
C        -4.61692395451725   24.44544292002086   -0.41640333496114
H        -4.91096519450225   24.30040113161938    0.63138436477594
C        -3.89020747276088   23.19618537622737   -0.91123026731282
H        -4.53634763389089   22.32986212462147   -0.80555991326601
H        -2.98563179391081   23.02548720751998   -0.33228223256725
H        -3.61769238936242   23.29368815813989   -1.95897317269388
C        -5.85311969048711   24.74108447663705   -1.26269126449338
H        -5.59117453105128   24.83130645072560   -2.31369714481207
H        -6.32612884573908   25.66599947467104   -0.94257252238595
H        -6.57024606248319   23.93228033700027   -1.15928273893117
C        -1.78674514623707   28.17550497261211    1.06055891001351
H        -2.12266549492668   27.97794393193988    2.08689236940320
C        -2.16191725080447   29.60070947444813    0.66027849357488
H        -1.78590405201847   29.83659469994870   -0.33190019391924
H        -1.72778501607426   30.30453409552029    1.36413247271892
H        -3.24112282492217   29.73118570708033    0.66190267693490
C        -0.27706417217173   27.95710447560415    0.97385707825046
H        -0.02376539666993   26.92696461004950    1.21278301503264
H         0.22888971384100   28.60853351882161    1.68013815390597
H         0.09178606041102   28.18219011328445   -0.02362164110976

