37
CSD_code = GOMVEJ | q = 1 | S = 0 | Stoichiometry = C13H18N3OPtS(1+) | MND = 4
Pt       -1.15054394425080    4.05004135008821    4.61766507416253
N        -3.08699794127561    3.53495036792923    4.71133939436992
C        -3.58678756871393    2.87609727466425    3.65303843551568
C        -4.96785553925180    2.70879211737788    3.49582450108281
C        -5.82218839729547    3.16419066756401    4.47671479251934
C        -5.28372502183230    3.76511770509389    5.61087940067819
C        -3.91920640159718    3.94313090897065    5.67928347780384
N        -2.72957278985009    2.36083559345209    2.69697754270601
N        -0.85314247951557    1.97434721443210    4.05497736970264
C        -1.53316941791781    1.68931310705082    2.94446646072321
C        -1.10060284977277    0.71455229831248    2.04458207620196
C         0.04820281242574    0.00646323696741    2.33999459149820
C         0.70954205015430    0.25759709417501    3.53545844739651
C         0.22815524143927    1.25869060170021    4.35524759162135
S         1.02075101481097    4.56027758664856    4.35742940016538
O         1.76590359577274    3.40773612291127    3.88355994735681
C         1.85521707370824    5.18487067098289    5.84597900586280
C         1.41088327803374    5.92241490251045    3.21634885966997
C        -1.57174525158955    5.99232206135680    5.08744363537097
H        -3.46081639426170    4.43267389533795    6.52817853304328
H        -5.91593130018336    4.10409968510757    6.41379863943561
H        -6.88814410576928    3.04033221206143    4.37156575842447
H        -5.34952763869240    2.21475984917562    2.61612643887153
H        -1.65619561467722    0.52302464621481    1.13994893953528
H         0.41294335169798   -0.74381300669236    1.65615045570254
H         1.59046946030364   -0.29518001005646    3.81291618481244
H         0.71174629706079    1.49541672622184    5.29133860873597
H        -0.95921032673870    6.70383030755850    4.53436696332457
H        -2.61544289612153    6.24721647639833    4.89740819513360
H        -1.38015458460042    6.14077100411349    6.15471855508278
H         1.76286776896636    4.43872608695855    6.62874052671483
H         2.90251474898233    5.34260984083290    5.61293068472180
H         1.37880223085722    6.10833177009948    6.15244637717213
H         2.46426775218594    5.83844043373919    2.97151522916901
H         0.81568301057522    5.80197131924750    2.31636648544480
H         1.19762341401300    6.87509790664098    3.68453240859906
H        -3.19231263704941    2.05474997487378    1.85024101166820

