43
CSD_code = GOMXOV | q = 0 | S = 0 | Stoichiometry = C20H16I2N4Pd | MND = 4
I         2.68204009621541   -1.38558966673097   12.82163946394351
Pd        2.55804144995072   -3.57982357002765   14.24736148283679
N         0.62454152684035   -2.23262991712852   16.21172113159134
N        -3.60507994888343    0.27384608600748   20.69990640121823
C         1.36112661747621   -2.73662796897485   15.46130820796914
C        -0.23275302246460   -1.72644435006621   17.12977824468555
C        -0.64057644583805   -2.54450553148590   18.19959434486924
C        -1.51992940093546   -1.99213092031961   19.11405007440155
C        -1.97447281428483   -0.67980497922494   18.97044550515397
C        -1.55409390404135    0.11282972086318   17.90152123292523
C        -0.67878418126531   -0.41481520481238   16.97753467089281
C        -2.87536648893386   -0.15117009958124   19.92566194677563
C        -0.11029003393270   -3.94581734262918   18.28903489622936
C        -0.59669797980593   -4.75438137762494   19.48262398695048
H        -1.86707192592262   -2.57267909179136   19.95360267548086
H        -1.91322561223301    1.12544335571041   17.80393944099453
H        -0.33419590846564    0.17086707005022   16.13859157567873
H        -0.37718262120889   -4.47716588599664   17.36883224038023
H         0.98414641682469   -3.90167098548168   18.31343647608270
H        -0.30498088562811   -4.28467512114455   20.41919977257635
H        -1.67788816680716   -4.87038405125365   19.46316707907851
H        -0.14888051851632   -5.74388551652337   19.44531266132934
I         2.43264918639799   -5.77498819305946   15.67209016917896
C         3.75442177106852   -4.42160881988350   13.03190804528108
N         4.48956990875487   -4.92629929040982   12.28054449346079
C         5.34802319622661   -5.43244619205989   11.36355543988829
C         5.75598850996036   -4.61453702162023   10.29372678606246
C         6.63547926517962   -5.16699107572537    9.37947111095921
C         7.09004028705702   -6.47927975086859    9.52329695531126
C         6.66967639298673   -7.27174636444464   10.59236072622554
C         5.79422323705762   -6.74399788428780   11.51617574575366
H         5.44944868550549   -7.32964337466497   12.35507309007472
H         7.02880586007782   -8.28435234213366   10.69006664432908
C         7.99063350809467   -7.00827464468106    8.56798534963614
N         8.72010260896950   -7.43377339048122    7.79378076052229
H         6.98261715916831   -4.58654792892514    8.53985151940584
C         5.22552766273847   -3.21331019583232   10.20413925063002
C         5.71234874008839   -2.40463859171841    9.01080841080754
H         5.42101376504512   -2.87430391098152    8.07409416808154
H         6.79352531715041   -2.28857679963717    9.03070544549813
H         5.26444746596862   -1.41517073898622    9.04803766195518
H         5.49192638580895   -2.68196985705107   11.12449210929990
H         4.13110483855492   -3.25762828438145   10.17927260559577

