51
CSD_code = GOMYOZ | q = 0 | S = 0 | Stoichiometry = C18H23Cl2NO3RuS3 | MND = 6
Ru        0.07382444755749    6.56599915798086    6.28372077527809
S        -0.26628338018376    4.22106984709491    5.93292816899450
S         1.94640959579151    6.14711838260559    7.47400759581892
S         1.18452713629058    6.94267811277127    4.36850798818677
Cl       -1.86309225287093    7.18767159410050    5.10646988362110
Cl       -3.46688596394024   11.91428894148576    9.61882112623043
O         0.32477214251489    8.59484509884257    6.69302986099931
O         1.68665150437962    5.84434209819370    8.87584771223743
O         2.61990110136104    6.65811091739218    4.39158478479323
N        -1.02569058141772    6.30405038721622    7.94563975505184
C        -0.53838450051909    9.24684757816316    7.37276507036343
C        -0.49001818360488   10.66845052300849    7.29802121860465
H         0.27203024768228   11.09673879043180    6.66406163896554
C        -1.36785056635502   11.47101527460321    7.96698440175303
H        -1.31323278127082   12.54478774999278    7.87492929301448
C        -2.35260159224536   10.89126406511229    8.77561133569258
C        -2.42971984586041    9.53294347286692    8.90733332433379
H        -3.18907523687475    9.09923455617204    9.54092772788869
C        -1.53734274781510    8.67320123869066    8.22985225597634
C        -1.66931885423137    7.28668772008323    8.50099550448131
H        -2.40855977876968    7.04830153759627    9.26599017179108
C        -1.13746534248023    5.01140602683618    8.44149500750906
C        -1.49375967625939    4.72101583235674    9.76409883674372
H        -1.65642694206047    5.52629599410315   10.46253481817949
C        -1.58652755013376    3.41604352650035   10.20416358466632
H        -1.85484681424768    3.22297588731115   11.23175360658417
C        -1.32444795226367    2.35747900448349    9.34870792345494
H        -1.39511564230548    1.33948651770772    9.69807576750544
C        -0.93610259627516    2.62023661455058    8.04740758433825
H        -0.69189048011637    1.81661300531936    7.36894768002810
C        -0.83869323447207    3.92717544447071    7.60611629878657
C        -1.83727285115277    3.92248657492696    5.04509554907908
H        -2.31603268734147    3.05472676226702    5.48688078487681
H        -1.58143628765843    3.72925462412610    4.00851441394283
H        -2.45900273510446    4.81241140144596    5.11828102475110
C         3.14955411005692    7.50381668079353    7.42413675820147
H         2.62364437172373    8.40913074420791    7.71065562794912
H         3.50531074254705    7.57433267002611    6.40266940014813
H         3.94940806224570    7.28782997059297    8.12241476188608
C         3.04068787716229    4.82673201089672    6.86100026051247
H         3.91582032244788    4.78071037621825    7.49772205220154
H         3.29891662806242    5.07432335650094    5.83780254402220
H         2.49225140037945    3.89157438417348    6.90839929062262
C         0.98785014033443    8.62966119925281    3.73763031289596
H         1.56083609199273    8.73798760122364    2.82447939716369
H         1.35380333626616    9.29954615719727    4.50882364833357
H        -0.07320509811098    8.78802470096531    3.57859923359419
C         0.50847511729025    6.06854480104503    2.92049318304505
H         0.99455135983266    6.42943154763420    2.02199877426790
H        -0.55909006705714    6.26419623258296    2.90961783653767
H         0.70774648711828    5.01030330590048    3.05705444418008

