35
CSD_code = GOMZOA | q = 0 | S = 0 | Stoichiometry = C16H11Cl2NO3RuS | MND = 6
Ru        5.47740039339091   10.57446021489898    8.85751296222425
S         6.02097261237560    8.59121514752277   10.24284855731455
Cl        7.26284820517775   10.14897224013205    7.41238922051527
Cl        3.83884280613165   11.57399046762444    1.84466679901538
O         3.03902349848627   11.19144191835992   10.48691809831904
O         7.44873941617942   12.41255650615751   10.16809910812796
O         4.98264464841345   12.12818398907516    7.52763882865019
N         4.46018015799926    9.22189236938667    7.70559858003349
C         3.97701660537347   10.94696549946710    9.88477068967103
C         6.64594707995002   11.73615385681052    9.73558792992634
C         4.69859172002520   11.91222529652586    6.30438770013080
C         4.67826047253695   13.04835551495349    5.44123444651277
H         4.89901997731909   14.00146916259127    5.89658733169357
C         4.42216882141809   12.94692886158214    4.10659895822994
H         4.43066840119854   13.82288521538766    3.47661948951200
C         4.15491463667988   11.68973876371926    3.54241418741054
C         4.13552407662272   10.57158211909568    4.32494422478357
H         3.92277858368870    9.61026907940040    3.88121567406178
C         4.38616897520324   10.63971367951918    5.71677245814472
C         4.27833659128748    9.42431724520927    6.43208813893066
H         4.00860580886428    8.56641942080702    5.81449515798935
C         4.19209061365276    7.96041763033868    8.23605722672817
C         3.22593243295947    7.10286520252400    7.69248370349116
H         2.61902385312085    7.43738554416282    6.86500719512885
C         3.00221963888846    5.85026903901255    8.22700818377401
H         2.24803566576138    5.21535653890256    7.78792696257718
C         3.72531248603187    5.41069663564330    9.32498373975341
H         3.54947534553704    4.43134898774622    9.74021275918115
C         4.65071973652915    6.25682227289539    9.90715609983209
H         5.19626676145966    5.95605261757257   10.78833359466761
C         4.87531178307709    7.51556880855142    9.37548036186702
C         7.60820887276231    7.88787769730849    9.68971434815907
H         7.56039758529856    6.80946968665007    9.80529082651908
H         8.37001415245139    8.30870717233901   10.33918270756288
H         7.79113758415127    8.18172559812613    8.65667374956185

