107
CSD_code = GOMZEQ | q = 0 | S = 0 | Stoichiometry = C44H56N2O2RuS2 | MND = 6
Ru       13.57707567552385   13.62224205255891    7.09555512854058
S        13.96160572153113   14.70955031150374    9.16409205757963
S        15.58595534414849   14.55691079112684    6.25839531876318
O        13.21415725703654   12.71156047333496    5.31133854315452
O        11.86735281773590   12.78039119913829    7.81244547334898
N        12.41458300363000   15.19368871294767    6.65664419197785
N        14.67876234794457   11.99968574524842    7.50369308806222
C        12.55444262120283   13.20350128548426    4.33960091720709
C        12.35262931046261   12.39162070023157    3.16676390610927
C        11.78218299385879   12.94993657382807    2.05742206562741
H        11.65281084095231   12.34305817189457    1.17770996059093
C        11.34702476825014   14.29116176551885    1.99313693346317
C        11.47414640745096   15.04793979255747    3.12169992354742
H        11.12756968942004   16.06979286799788    3.14188072566853
C        12.04219881846843   14.54555488431589    4.31872324887210
C        11.99963767744512   15.41291503510966    5.43378251419363
H        11.53829118890319   16.37817002216040    5.21878718202822
C        12.04136687982423   16.03951283685924    7.68641416739407
C        10.97976210980745   16.95583294744268    7.60441198980924
H        10.38210040115912   17.00758851856297    6.70809653364915
C        10.64881506080956   17.77112905105261    8.66630025177743
H         9.82386741126164   18.46071723263982    8.56561724279145
C        11.35683171433233   17.70904864967723    9.85611437919352
H        11.10506740296035   18.35679943088859   10.68106443926652
C        12.37946670437252   16.78689979733784    9.98060657470947
H        12.93411337142398   16.70794421935055   10.90323961954739
C        12.69430125627897   15.94784321407037    8.92765641109096
C        13.18707002672450   13.77957754707209   10.53169946008071
H        13.23673364252715   14.37425368449588   11.43891905184702
H        13.76278427755935   12.86685768600403   10.65052517854783
H        12.15914847243806   13.54457846300554   10.27572751044146
C        12.80311158221707   10.93496341713592    3.20757115233529
C        12.45560615140118   10.17502826550164    1.92273479198478
H        12.76326003480565    9.13641942116362    2.02832496765214
H        12.97671246050058   10.59062217234972    1.06270439950825
H        11.38416643973714   10.18943201446145    1.73582970994973
C        14.32740772479051   10.87057361927888    3.39233428096042
H        14.61589201860043   11.30202809685422    4.34673615581474
H        14.82964898902542   11.41257144326619    2.59170019187034
H        14.66368117830748    9.83576265698177    3.37129231106736
C        12.10491452984147   10.22291109207232    4.37578053280084
H        12.34807072039524   10.69839586017577    5.32245182496064
H        12.42022276610984    9.18225874740095    4.42256990730391
H        11.02544013095537   10.25430227704363    4.24062758027111
C        10.75287039388009   14.80658381282445    0.69156967912957
C         9.51532622752853   13.97221783770870    0.33262453211657
H         9.05993700134834   14.34872408557196   -0.58128198017432
H         8.78131404156887   14.02756971007094    1.13375545954330
H         9.77141581925270   12.92780870251046    0.17839382003723
C        11.80275642344261   14.68425626724858   -0.42196003576176
H        12.10646379057337   13.65149897649113   -0.56866716158030
H        12.68695436363715   15.26620892239535   -0.16933461167746
H        11.40014388521309   15.05721592042178   -1.36167168804343
C        10.32601940869228   16.27423126837756    0.78239230521193
H         9.91880245637940   16.59463334202078   -0.17469158129404
H        11.17355056377942   16.91371954819431    1.01850669573840
H         9.55548802453587   16.40985432777181    1.53766886803519
C        11.77584798676041   11.65307115161889    8.39753119597891
C        10.47034456585403   11.18834508833173    8.79140235416732
C        10.36485499012875   10.05935279324845    9.55433756167501
H         9.38754458736214    9.72884538949283    9.86187106462197
C        11.47307545027105    9.29012919664476    9.96970935436616
C        12.70780030679638    9.68586269280789    9.54382516955999
H        13.58801689368071    9.11682937139973    9.80094813534749
C        12.90653798278945   10.83543077261320    8.73955362669631
C        14.22671632126666   11.04818825225605    8.28207187151444
H        14.93521679401356   10.29251927256031    8.62533380327107
C        15.93192305678883   11.89728879070055    6.92577008026330
C        16.65921225494661   10.69886012560940    6.83561225556925
H        16.23036016070887    9.78065390242040    7.20475151823881
C        17.90327252295901   10.65476793353355    6.24213872209292
H        18.43011926437071    9.71357940950267    6.18918150032975
C        18.47674003040914   11.79905679974686    5.71058233312528
H        19.45550230356266   11.76532017752744    5.25847690111060
C        17.76603202897935   12.98449267442459    5.74689883738900
H        18.18452873683275   13.88509382256642    5.32395921756437
C        16.50610659694286   13.02540697414404    6.31501136782459
C        15.49402708478503   14.75709677143051    4.44547260559125
H        16.47357631952264   15.03548239431466    4.06845336889552
H        14.78055943574157   15.55352963025411    4.25764510513188
H        15.15139115474493   13.83181855313227    3.99403305114012
C         9.25142843386984   11.99154267989197    8.34919999419145
C         9.24915673881628   12.10255513787644    6.81723381392673
H         8.38693754177323   12.67731145398155    6.48438248486694
H         9.20036812315543   11.11102495321017    6.37111199322774
H        10.14951465080366   12.59690050260114    6.46172459202982
C         9.30176697806430   13.39436542825623    8.97469464898269
H         8.41064833119217   13.95718360085159    8.70356350423025
H        10.17034273186953   13.94132353584582    8.61877536261786
H         9.34772702515643   13.32379889805114   10.06092471037894
C         7.93092102700867   11.33839954441178    8.77198591200634
H         7.84058598637265   11.29131137138921    9.85527890680813
H         7.83887691017651   10.33622958771071    8.35928119767362
H         7.10161703909255   11.93358622645965    8.39447571747271
C        11.23072311226430    8.06754503556398   10.84108342925104
C        12.52858071159473    7.34332894757608   11.20926774147007
H        13.19877823623130    7.99907990609402   11.76049795776619
H        13.03752205737130    6.97904494943766   10.31998456732790
H        12.30069988638485    6.48670050376035   11.84072790500164
C        10.33055613202872    7.07849018026450   10.08742620797721
H        10.17006834717131    6.18409012256472   10.68629598290654
H        10.79756705533390    6.78780604295585    9.14876378840658
H         9.36136421756806    7.51515867437471    9.86338922015205
C        10.54502760243168    8.50610568139350   12.14285504470416
H         9.58745450479045    8.98028668296939   11.94660345231181
H        11.17328031096513    9.21630277623062   12.67690311668020
H        10.37264713634931    7.64525016724967   12.78587164952917

