75
CSD_code = GOMZAM | q = 0 | S = 0 | Stoichiometry = C30H40ClNORuS | MND = 8
Ru        0.73601145883934    3.37964696696547    8.19419294315268
S        -1.35320661635726    2.29926377134172    7.28636157198449
Cl       -0.69488464111060    4.57479686539778    9.62490858437437
O         2.14722742712204    4.77086847302530    8.95552027712836
N         0.28781813036566    4.78192455884216    6.77329072056754
C         2.54901177958816    2.74428840904601    7.13514915879299
H         2.84279196294791    3.50024611761585    6.40577581274213
C         3.65404195209461    2.39404771071467    8.10412665810449
H         4.21478866041122    3.30627991048343    8.31729817373970
H         4.34463879405085    1.69735448943577    7.61359927628577
C         3.15329821814153    1.78993258171758    9.42959880514917
H         3.14271805496642    0.69985494251588    9.36606655450419
H         3.85605006298802    2.05752596019444   10.22100561834828
C         1.76937439653249    2.26390992326557    9.81736677041006
H         1.71699937502822    2.90911116779972   10.69408976042734
C         0.63216056220950    1.57714077425690    9.45857872881609
H        -0.24538279404304    1.67974904237967   10.09899523495214
C         0.66993538985594    0.30852012812321    8.63325888726945
H        -0.35511604045372   -0.00221526857659    8.42029977696260
H         1.12584338355737   -0.48615794167288    9.23444072819425
C         1.43503056469119    0.45651617980206    7.29951257933452
H         2.45041990675274    0.06834365542375    7.40477737366500
H         0.93398351101625   -0.15181966161403    6.54457040223234
C         1.52356208624680    1.88198136130857    6.78733625804436
H         1.06105387920155    2.03396879889224    5.80950270046410
C         2.63062778620097    5.77921390540436    8.35954456658965
C         3.55340768211402    6.65000357743327    9.05001828652742
C         4.25023150105255    7.57607056093286    8.32595120738929
H         4.96922658966549    8.19253403101705    8.83784925677271
C         4.08784201646792    7.78991048689535    6.93828405060886
C         3.10882286304846    7.07838435060548    6.31034271191953
H         2.87449987626694    7.24304300201530    5.27006965056146
C         2.33237505431947    6.11132223964709    6.99521573922272
C         1.18814101143806    5.62988637677282    6.33585335328952
H         1.00725689287165    6.08678027248705    5.36081758797839
C         3.73111216203377    6.49989376609029   10.55536950500943
C         2.35736114700015    6.60813836566513   11.23133359442029
H         1.67724503066021    5.84722732804526   10.86047953911747
H         1.91804956945982    7.58469368882624   11.03620237162298
H         2.45743938009566    6.48188909363224   12.30744715782968
C         4.35852923061427    5.13468413912539   10.86355583014541
H         3.69902565702087    4.34459918941964   10.52426564340105
H         4.51322285020199    5.02638197723042   11.93531275798960
H         5.32034472759706    5.03618033762404   10.36182122668708
C         4.63361327607082    7.58385546928506   11.15501181478185
H         4.66564795049209    7.45981026160710   12.23565062684725
H         4.24788918338839    8.57876413420433   10.94343444567782
H         5.65298968038827    7.50537977697042   10.78221540780402
C         4.96282308574934    8.82219741729424    6.24619515580038
C         6.43698773757686    8.43627322977988    6.43215231811777
H         6.71223633960409    8.41164787261872    7.48279209429043
H         7.07972250016619    9.15633290248652    5.92972310494637
H         6.62334298721473    7.45171201782528    6.00795389407839
C         4.70469716790947   10.20300590933981    6.86517885189131
H         3.65434983343535   10.46863064948952    6.76505268197745
H         5.30244451054440   10.95883464066835    6.35971325571666
H         4.95972339348206   10.21882824355789    7.92113357488222
C         4.68070907905855    8.91106292063954    4.74389356289284
H         4.84225737451621    7.95058746537558    4.25977090819184
H         5.35335072276362    9.63582318063964    4.28954061643684
H         3.66058094179468    9.23773754952540    4.55615002829361
C        -0.96576665789035    4.79716804807034    6.18269385972864
C        -1.46242349266289    5.92127900572191    5.50085976606878
H        -0.88537065778301    6.83254719230742    5.48226220823446
C        -2.70192599603519    5.90578647096170    4.89749183143497
H        -3.05124718146663    6.78963610467203    4.38522000812200
C        -3.50133329202792    4.77462563958056    4.95196506481254
H        -4.46326988594314    4.75600970317145    4.46442954967007
C        -3.06251416374385    3.67804239197167    5.66847292793623
H        -3.67837401247571    2.79438356354109    5.74410940247963
C        -1.83312942836529    3.70418960609955    6.30485048686782
C        -2.68571586668193    2.31428948130055    8.52649056277225
H        -2.52907521195192    3.16400798725627    9.18982831713189
H        -2.61487816878745    1.37770285779387    9.07117065882755
H        -3.63907224105814    2.37823270067740    8.01323562055440

