153
CSD_code = GONGIC | q = 0 | S = 0 | Stoichiometry = C70H74N6NiO2 | MND = 4
C         2.21425516577909    1.52740104050764   22.52376390635090
C         2.27750374065895    2.90679078204253   22.16547498665017
H         2.10354916200418    3.72646654769432   22.83463836248418
C         2.62236057929329    2.95515848721836   20.85234034718480
H         2.78343297251228    3.82165806970659   20.24140029358388
C         2.70511300164700    1.60528125876748   20.39878805634856
C         2.89903437600084    1.23781294391729   19.06028881958244
C         2.67687315779758   -0.05845051213238   18.63433592137594
C         2.51022077341826   -0.46895022091891   17.25305989227645
C         1.96949599111944   -1.74980625233817   17.30952480653828
C         1.91557541922711   -2.11476596720815   18.68077310674555
C         1.59865288752854   -2.60756772894029   16.22433726663111
C         0.95272057896550   -3.86130745733918   16.66482286176519
C         0.33760077578159   -4.65961196227023   15.70473612544712
H         0.43437461227911   -4.36456926298098   14.67006203893055
C        -0.38749387633199   -5.77605142150489   16.06659024179592
H        -0.85705010624710   -6.39139290569159   15.31386376459994
C        -0.54091035143607   -6.07606596880385   17.41288774968040
H        -1.15423603384558   -6.91357290025016   17.71271807287578
C         0.07608521784214   -5.30356379928377   18.37652813056309
H        -0.09886078922254   -5.52026427306808   19.41900500722051
C         0.87912623245724   -4.21242713398484   18.02974979531420
C         1.55134407400011   -3.41691000638411   19.04636543025595
C         1.97551319356627   -3.90865796308850   20.28496602699831
C         2.15528185148833   -5.29200289425911   20.61459338886188
H         1.89900218834424   -6.12153253601150   19.98691380320464
C         2.78089400538789   -5.33498847890063   21.81465333725829
H         3.03481138166123   -6.20720334367668   22.38259885026308
C         2.96468466558376   -3.97868622099234   22.24037082413943
C         3.39534353927054   -3.57592061496743   23.50862328072695
C         4.07351660489083   -4.44143980627903   24.46209474152570
C         4.87195429903921   -5.50675245022120   24.03381302415039
H         5.03815944634748   -5.65081099211087   22.97744254457762
C         5.49545078407926   -6.34506063406818   24.93631709672832
H         6.10483117627840   -7.16041261284284   24.57391026550134
C         5.35374338141334   -6.13909836564916   26.30144376196628
H         5.82877507633175   -6.80553893185711   27.00566430044132
C         4.63316734364986   -5.04994473094171   26.74595227512009
H         4.54522587503653   -4.82732805820549   27.79936363774594
C         4.01125894375211   -4.18639989450595   25.84875837155050
C         3.37002881043708   -2.96632202422685   26.38077321320099
C         2.99031431091914   -2.03522891602543   25.36117404371194
C         3.03396940167536   -2.30280220735897   23.96735229587997
C         2.44614191745568   -0.76348162611917   25.51203811160083
C         2.26506929666291   -0.25793777674057   24.16459045477687
C         2.02834541117740    1.06337579542681   23.83326541678586
C         3.22750539996191    2.30507068593402   18.09002065747357
C         2.24496366417506    3.18611750126919   17.64853780806408
H         1.23371770013599    3.07560387612938   18.01130493159246
C         2.55942429955709    4.18818040145461   16.75065799428623
H         1.78710182084243    4.86443302108186   16.41347044842241
C         3.85696677188968    4.34096533396912   16.27513775980434
C         4.83580836779966    3.46267720136464   16.72358904213624
H         5.85079290596033    3.57034014361671   16.36902035411743
C         4.52817480160530    2.45291539587144   17.61812769370981
H         5.29681591701363    1.77592597959895   17.96150303088126
C         4.19759203062951    5.46597427400283   15.34349805366967
H         5.04393703681517    5.18361426554086   14.71645196714135
H         3.34440784298093    5.68220576465915   14.69695275018472
C         4.54722880333964    6.72651815436032   16.14548338552483
H         5.46178309182376    6.54612840502914   16.71496634055148
H         3.74431946772616    6.91361219122525   16.86313276685587
C         4.72321412850767    7.96706553744478   15.27124452612205
H         3.81754888682151    8.12306009764148   14.68003422091317
H         4.84191812674180    8.83523780635920   15.92444828140099
C         5.92795251280490    7.89166877296183   14.33592449899034
H         5.78939586909938    7.08228149451441   13.61691228697532
H         6.82532018049009    7.67095248169040   14.91900177559159
C         6.12962127234984    9.19966016791644   13.57429642120940
H         5.22378494620939    9.42876446928868   13.00764912185272
H         6.28560241039973   10.01284891339410   14.28730339817989
C         7.31745592353623    9.13455339609309   12.61755935277518
H         7.16494737309438    8.31849407671001   11.90705584017106
H         8.22589229067421    8.91345728073746   13.18302892811802
C         7.50556248933944   10.44105778051925   11.85047312878461
H         6.59501535205485   10.66258679809981   11.28839919805421
H         7.66033383585357   11.25702765637821   12.56057598748078
C         8.68857290882393   10.37869532133535   10.88751480601663
H         8.53669042157659    9.55723923439938   10.18299528399362
H         9.60095234244137   10.16525110960685   11.44971036241488
C         8.86699054603138   11.68241973242606   10.11298428547357
H         9.01147712870848   12.49838208733061   10.82297188123052
H         7.95678897335595   11.89174908905392    9.54552984553072
C        10.05327995895722   11.61487709801843    9.15367951860895
H        10.97194956705289   11.46300891971662    9.72542258328172
H         9.92530554921665   10.74756327789325    8.50077364011342
C        10.20279442288359   12.86323480995866    8.28347589940041
H         9.26436219552072   13.04852685532717    7.75568709099919
H        10.97182666833909   12.67195643377530    7.53102249494455
C        10.59113728357912   14.10576166017297    9.07645177324696
H         9.80370869538038   14.38892171074310    9.76988682589906
H        10.76655370849504   14.94283863133598    8.40430407427533
H        11.50199132248294   13.92525949266387    9.64345824471548
C         1.68438038487370    2.05361018038532   24.87660352027493
C         0.38742817435361    2.12649649830022   25.37584852841800
H        -0.36320538051970    1.44517938545499   25.00243708211715
C         0.05947142643742    3.06960788029530   26.33370471067232
H        -0.95315922440438    3.12054349589636   26.70718335328496
C         1.01440285399512    3.95355804247183   26.82057606957852
C         2.30962105844007    3.87265335535063   26.32123264107283
H         3.06410840214763    4.55284057203380   26.68948039406278
C         2.64376264670263    2.93851001563615   25.35958319999037
H         3.65273254137475    2.88477089858028   24.97812336827559
C         0.64978511214008    5.01338333010872   27.81741969749834
H        -0.20441919782845    4.68591521067662   28.41084679331827
H         1.49044346965471    5.19415501572096   28.49083276306225
C         0.30385564459108    6.31942307024305   27.09026387364927
H         1.12662228915433    6.56666395079278   26.41461614494265
H        -0.58769667862443    6.16268910723433   26.47870770783609
C         0.07482040824300    7.49622914798207   28.03733363809717
H         0.94699101075305    7.61430294635972   28.68490115506430
H        -0.01514691255547    8.40661957399456   27.43928926433533
C        -1.17822890378111    7.35471386407289   28.89874892709841
H        -1.07241729614547    6.50285772547787   29.57286573068271
H        -2.03974022004231    7.16546015361174   28.25373392523861
C        -1.43487754452321    8.61262244841132   29.72546466453837
H        -0.57339470558383    8.80177132432967   30.37048596236554
H        -1.53760114344093    9.46940983336804   29.05498606663113
C        -2.69139812964368    8.49557430236667   30.58457930616357
H        -2.59242229081978    7.64064596308207   31.25777718295667
H        -3.55342861753153    8.30891197612818   29.93954600893063
C        -2.94048130704609    9.75857767568415   31.40538730380863
H        -2.08522517313259    9.93643715473782   32.06182977559375
H        -3.02142082362921   10.61505693992598   30.73155776837121
C        -4.21021451631679    9.65931090035510   32.24720697320012
H        -4.13188852408391    8.80132936232119   32.91939465313195
H        -5.06570659798502    9.48518271853929   31.58997850245328
C        -4.45429304898733   10.92434626119713   33.06680080626175
H        -3.60778223867613   11.08776686228382   33.73831988744143
H        -4.51141862765439   11.77811234371568   32.38956883060292
C        -5.73796785763139   10.83005821832769   33.88863712632899
H        -5.69456212667470    9.92651342032764   34.50232513312522
H        -6.59163831257712   10.72848685651573   33.21420173561794
C        -5.96195881000355   12.03299077544808   34.80562699905293
H        -6.81316073747949   11.81939527888308   35.45681030253294
H        -5.08509081256745   12.16773141209953   35.44316525438063
C        -6.23807503445156   13.32525972256238   34.04573058152947
H        -5.37232882050618   13.62879749938909   33.46311352894332
H        -6.47615613960148   14.12791908179679   34.74023600125560
H        -7.08091185165054   13.19600885771930   33.36997560743088
N         2.46471121950259    0.74596280322228   21.43229887935112
N         2.35315654046256   -1.10596496802034   19.47210050568846
N         2.47053274272522   -3.12787132884262   21.29177698565561
N         2.58785092957212   -1.24171219885657   23.25261282144560
N         2.75258894026853    0.18705923264902   16.11562092101601
N         2.21725274901162   -0.18881834739120   26.69545669448495
O         1.74898006122035   -2.29541568362174   15.04162029903716
O         3.22904955684879   -2.73748497127714   27.58357511690288
Ni        2.46908091984552   -1.17415094357687   21.36253817227380
H         2.52899044805986   -0.32223406779167   15.26923634440594
H         3.18068321480609    1.09493420254045   16.09319714692513
H         2.44735789226889   -0.75850080210663   27.50072271270817
H         1.77821928982682    0.70949560083138   26.78704633668793

