79
CSD_code = GONHEW | q = 0 | S = 0 | Stoichiometry = C43H29N5NiO | MND = 4
Ni        7.90964190663303    6.89884935053267    2.13324977076512
N         6.65653877487417    5.65847833590336    2.94965939662826
C         5.34039117852902    5.88166251135522    3.23386794337269
C         4.64117660233256    7.06595074696164    2.98834554730209
C         5.18886076537733    8.08399356051924    2.22510392610396
N         6.44145452849047    8.07854976512009    1.65905728171064
C         6.46920044406394    9.12964202446984    0.79994485714537
C         7.57808732395286    9.53732474396939    0.03659466523950
C         8.86351349322466    9.09253209026709    0.37850017431431
N         9.14920408940639    8.12594673930231    1.29558015631635
C        10.51222941935819    8.14317875224962    1.44402929994237
C        11.27363972626397    7.24635642073356    2.17637285127588
C        10.71582995604155    6.08646375674455    2.71697985172344
N         9.39182218830208    5.75140981757502    2.66680631020724
C         9.31942308995937    4.47654137858957    3.14221819602987
C         8.14372205738038    3.74170772570295    3.34036061592680
C         6.88725958707679    4.35745637005392    3.28580045090440
C         5.68918426621358    3.73574020894916    3.74953158316438
C         4.72927702923558    4.69361521020232    3.74286183033571
C         4.45565343821700    9.23040206247678    1.77699709339155
C         5.23107789937260    9.85283633623615    0.86025952063055
C        10.07144755624666    9.71058331427268   -0.09075693881777
C        11.08777224908665    9.15329712186832    0.60243312440763
C        11.47925373248886    5.01952928359661    3.28628695647513
C        10.61247269751380    4.00210420791042    3.51511538428918
C         3.25391976800163    7.17306987256581    3.47865380473003
C         2.18595100081820    7.28848155275803    2.59401242320999
C         0.89077527996668    7.38031298024589    3.07065505781965
C         0.64703199357048    7.36106515830033    4.43377204952378
C         1.70452458687922    7.24057331385230    5.32010755830298
C         3.00002609163494    7.14139434803919    4.84687721470100
C         7.35955674028150   10.45013365698682   -1.07756730927919
O         8.19195851539804   11.00961607474875   -1.75608991013580
C        12.72709382146371    7.47955813252544    2.28766148308680
C        13.64103421621004    6.61339303498116    1.69582291090578
C        14.99913090001272    6.85295370422654    1.80205978460733
C        15.45955997208210    7.95541486265141    2.50245686053459
C        14.55518831741299    8.82421958856472    3.09010807454625
C        13.19642531572477    8.59186803441885    2.97966904314207
C         8.23208324288930    2.39689005814816    3.71298301819113
C         8.30888056133320    1.22737045432258    4.02370915834662
C         8.39255192645866   -0.12114606535627    4.39325399952046
C         9.63212900212835   -0.75639382503443    4.52671565751400
C         9.71423377538197   -2.07711668796392    4.89618292556700
C         8.55860432792207   -2.83763116092175    5.15063915971005
C         7.31698266188087   -2.19063746140407    5.01471190176993
C         7.23754257991344   -0.86975642357662    4.64566379615299
N         8.63773185279978   -4.15403784900246    5.50829496129049
C         9.91966988675829   -4.79709524091622    5.65527318495965
C         7.44608894288366   -4.89262250078823    5.84524286582034
H         5.61838495594103    2.71162197004124    4.05945724024546
H         3.69904434307585    4.60774714078566    4.02790643248938
H         3.47699289346671    9.50731255953984    2.11602324868731
H         5.00405248342850   10.75251514607822    0.32393686308036
H        10.10629688813982   10.48474837819129   -0.82923520386884
H        12.13656329939591    9.36667669534688    0.53495221509991
H        12.53441635501673    5.04884823220033    3.47331865076235
H        10.80596043926917    3.03055329435456    3.92592742281961
H         2.37573977706874    7.28765121127900    1.53043691786493
H         0.06848112086981    7.46558811861818    2.37531417542183
H        -0.36461964709031    7.43608816164761    4.80419985391671
H         1.51908600509019    7.22243867508158    6.38413421898376
H         3.82715490664667    7.04934247924120    5.53573588257856
H         6.28961440308325   10.57784773693462   -1.32549377635019
H        13.28031161226043    5.76207007424376    1.13688279410456
H        15.70080784045844    6.17758108775162    1.33453717331360
H        16.52043306699718    8.13930537154646    2.58634486645373
H        14.90946849921149    9.68759861233344    3.63398699968232
H        12.48797325632975    9.26795320651499    3.43581533996584
H        10.53596195903822   -0.19552247404899    4.33733566482247
H        10.69106427620473   -2.52162835180168    4.99141809721670
H         6.40036960451475   -2.72645339425976    5.19785887238180
H         6.27057780051780   -0.39786462038945    4.54738127195458
H        10.49375678210590   -4.73827762058793    4.72647970777188
H         9.77422934744133   -5.84793813884416    5.89295250541302
H        10.50818957795627   -4.34281574052673    6.45975623175591
H         7.71502571326249   -5.90564783034833    6.13362744792797
H         6.76603357653642   -4.95336512685283    4.99027208421712
H         6.91391958424229   -4.43030430208837    6.68286727795184

