83
CSD_code = GONHAS | q = 0 | S = 0 | Stoichiometry = C45H31N5NiO | MND = 4
Ni        3.42255235276040    1.83128843973348    2.81415676607201
N         3.23283665355194    1.70051265385921    0.89103917596281
C         3.82810895835157    2.48934375850338   -0.05231485351233
C         4.79169686066437    3.46774465547659    0.19283286108723
C         5.35480246473434    3.63343210139996    1.45012693714305
N         4.98400159430054    2.96953527580076    2.59267359010507
C         5.91698248030244    3.28596640680890    3.53095369765933
C         5.88670526938918    2.87657127546183    4.87703965558113
C         4.67474941512718    2.42191733903851    5.42843745194443
N         3.59430076691619    1.98395946937928    4.73260615142486
C         2.60916901988799    1.76193218741361    5.66427405610836
C         1.40787982181835    1.10919061200362    5.42987357575379
C         1.11450659581233    0.55365943359574    4.18335875482940
N         1.84895871106623    0.71997471379320    3.04366603517457
C         1.27283350805458   -0.09219212703287    2.11367914971640
C         1.60799774349989   -0.13938884543445    0.75461561136197
C         2.49005867451791    0.79432743073620    0.19577459691917
C         2.63034879317157    0.99913286571724   -1.20989247972605
C         3.44190333223996    2.07390922996024   -1.36567178693535
C         6.50853405043041    4.44059888832075    1.70633323213672
C         6.88718974359692    4.18477900424379    2.98010484265280
C         4.35272117504432    2.54977748856591    6.81953552429787
C         3.05897547175223    2.17747682423454    6.95849447547551
C         0.05640452471808   -0.38272288587647    3.96212527486823
C         0.17318239928314   -0.80516583028233    2.67890022668328
C         5.29356695249850    4.25656308843409   -0.94971786589206
C         6.60455936570362    4.12064635372819   -1.39543524198490
C         7.05594196546608    4.86028204519987   -2.47356982557252
C         6.20591374013320    5.74481049626109   -3.11627122730616
C         4.89801750624610    5.88084520443494   -2.68156406184731
C         4.44148952259668    5.13780396680738   -1.60829498829939
C         7.06970795332793    2.98790022996548    5.67984728258437
C         7.36707059114956    2.22802563856534    6.75632582670158
C         8.60744273714676    2.38914686643219    7.48040334936455
O         8.94432058684614    1.74400446125249    8.44781578203251
C         0.46030688478707    0.88717465821972    6.53844257183687
C         0.82636773256252    0.14138947366984    7.65489304630338
C        -0.07559935690082   -0.06648747048776    8.68253256396172
C        -1.35035685826734    0.46980834842669    8.60966589010516
C        -1.72338940435870    1.20886813813501    7.49926765580219
C        -0.82661838242755    1.41234574505445    6.46646836768412
C         0.96537492257918   -1.05941957402703   -0.07883797328223
C         0.42005598284546   -1.86847778317391   -0.79872454170854
C        -0.21717870225427   -2.79452712039666   -1.63401985135453
C        -1.20996697082101   -3.64698106997242   -1.13842079057223
C        -1.84020207138550   -4.55079877861137   -1.95875312934750
C        -1.50882234664376   -4.65398243406251   -3.32197549119258
C        -0.50672856456904   -3.79630587262542   -3.81043933082017
C         0.11960781439674   -2.89098854523507   -2.98881624950236
N        -2.13734887245450   -5.55024793319483   -4.13899629196166
C        -3.07293620025520   -6.50484867522235   -3.59798065495532
C        -1.85101950389101   -5.58336806031164   -5.55117996199456
H         2.14462770563530    0.40591821273682   -1.95971143818072
H         3.77601170702072    2.53143302870793   -2.27618990793552
H         6.96930421213094    5.10033001050676    0.99803294496505
H         7.71732595440077    4.61686926634162    3.50217950222890
H         5.00742878437110    2.94416133399775    7.57049421387775
H         2.46032040657966    2.17797290313619    7.84776535810824
H        -0.65537384434903   -0.68962741846405    4.70316844401569
H        -0.43073636533650   -1.51100895606570    2.14316658003197
H         7.26238988340181    3.41946554995144   -0.90252312401564
H         8.07443387352948    4.74451593590683   -2.81451122357838
H         6.56082330042311    6.32366529317234   -3.95603097521890
H         4.23044978079280    6.56718673276768   -3.18173928111965
H         3.42192792827817    5.24175080688302   -1.26649684582457
H         7.82807145685930    3.68230065643840    5.34358992200292
H         6.70281086205284    1.45119476690999    7.10566584482402
H         9.26531975392929    3.18905316582169    7.07920225572744
H         1.81590541923828   -0.28922157260884    7.70413735034550
H         0.21728299730801   -0.65052929638894    9.54271308638010
H        -2.05224368938428    0.30918211477414    9.41453468793376
H        -2.71741999330827    1.62711347470975    7.43694957606918
H        -1.11411474165843    1.98987572555786    5.59985251831899
H        -1.48455370684787   -3.58716855268377   -0.09512165343783
H        -2.60603629885826   -5.17957395279960   -1.53564961208776
H        -0.20649251494637   -3.84286549443953   -4.84426335905869
H         0.88858112654402   -2.24568621560932   -3.38850517511117
H        -3.36102534658364   -7.21071692290897   -4.37292300478816
H        -3.97933429037536   -6.01230570914355   -3.22982765462911
H        -2.62435904620857   -7.06997779490814   -2.77627992224224
H        -1.97215506324127   -4.59196258251465   -5.99576425876383
H        -2.54415203590362   -6.25901543594176   -6.04687560623138
H        -0.83139562053147   -5.93297083650523   -5.74842662426852

