42
CSD_code = GONJOL | q = 0 | S = 0 | Stoichiometry = C21H14I3N3Zn | MND = 5
Zn        6.10437643181476  -10.59999427185332   16.55021676306703
I         4.67284830423313  -11.49554852432437   18.43803105345452
I         8.60088676653527  -10.46386275812632   16.04927628102900
I         5.22798343625513   -5.54377516745385    6.64165062567372
N         5.79324174414004   -8.41763977462790   17.04965243949862
N         5.32056802711739   -9.65620757807948   14.78167294663539
N         5.60157860845243  -12.24901329601072   15.08932369143533
C         5.91553286422670   -7.88758707828823   18.25244574248577
H         6.17960499248320   -8.56812882949804   19.05067767595072
C         5.71514901251837   -6.53842793701602   18.50101174666237
H         5.82845399101711   -6.14591746171943   19.49827438368345
C         5.35804540813971   -5.72240234515367   17.44033585448130
H         5.17884239989974   -4.66831537959694   17.59074912039485
C         5.22870555396655   -6.27792084194946   16.17838957499309
H         4.93327916599810   -5.66346354358474   15.34341883122474
C         5.46522932433403   -7.64069246946949   16.01631987143492
C         5.36424660725659   -8.32884392555250   14.72006625099230
C         5.34700811063052   -7.65957978955000   13.50090081636898
H         5.40100586877779   -6.58428758814907   13.45894361848712
C         5.27034315754863   -8.39646594379636   12.32167010765055
C         5.21542291805097   -9.78493068909192   12.41567633002458
H         5.19809600097914  -10.38168515183606   11.51870326822853
C         5.25029218247847  -10.38329215286316   13.67057763482366
C         5.25138974718781  -11.84080030960584   13.86870885306638
C         4.91011945299370  -12.74882479022425   12.86953099288593
H         4.60197487293953  -12.40975646882625   11.89378958512649
C         4.95511028612492  -14.10347830692368   13.15311886829045
H         4.69508077580704  -14.82627107387639   12.39437027748749
C         5.33469375902205  -14.51293517556996   14.42070485918444
H         5.38500799182587  -15.55717898653884   14.68217684067000
C         5.64336749019550  -13.54042943186361   15.35933071302386
H         5.93099225353227  -13.80979551245581   16.36670076687680
C         5.25949396232437   -7.73251783928229   11.01222932316999
C         4.40714261996104   -8.17668550503742   10.00347082025515
H         3.73112771942070   -8.99747505151742   10.19285312016667
C         4.38952590807518   -7.55502946082054    8.76996568660179
H         3.71863208169864   -7.90155423283487    7.99921986288935
C         5.23898792650517   -6.48754042285484    8.53452244316611
C         6.09851998661121   -6.03449413737240    9.52063594786217
H         6.76333410622385   -5.20664696643023    9.32906781014208
C         6.10157778729731   -6.65271824164596   10.75644954980073
H         6.78588039539980   -6.31068558872701   11.51836905065317

