59
CSD_code = GONPAA | q = 1 | S = 0 | Stoichiometry = C28H26ClNNiOP(1+) | MND = 4
Ni       14.71763154799410   22.71778491027248   18.91769637312075
Cl       15.96396128288599   21.53059820601928   19.95307728115642
P        13.34795525276407   21.14068954544833   19.11356980708151
C        13.37313623824745   19.98133850151811   20.49969850402396
C        13.61084146735828   18.62428689058411   20.31664580927082
C        13.65024866784237   17.78686756254975   21.41862542822060
C        13.46621604148980   18.29918809225463   22.69222659669720
C        13.24273902727953   19.65647131296114   22.87487114984291
C        13.19991274019969   20.49981194753165   21.78246272719641
C        13.41388397024459   20.16192038851881   17.58779427254685
C        12.31830787963956   19.42383877852960   17.14917761312140
C        12.42260760998075   18.67540717724875   15.99043234445521
C        13.60758428741330   18.66266104683896   15.27011804659212
C        14.69765079957497   19.39989614506449   15.70546782734939
C        14.60197196925090   20.15089061460623   16.86277270591324
C        11.65143476410347   21.81722941796675   19.12842392983478
C        11.32802394597210   23.02308938775461   18.47989494960651
C         9.99164807856829   23.43879809817719   18.45806006043068
C         9.00264269695271   22.70136715430628   19.07828079460422
C         9.32959525773961   21.51978765296431   19.72507615105011
C        10.64424440599824   21.08368787433473   19.74499236678960
C        12.29207191515298   23.88041131571644   17.82119809164057
N        13.56281458513395   23.82523832497876   17.92198516205503
C        14.37888732751837   24.73992217715102   17.14001699772114
C        15.40714401260568   25.40145072336198   18.09339110924352
O        16.01892999575330   24.32368366233610   18.79169459992373
C        16.39985314036031   26.25768083413096   17.34413550947667
C        16.05931072510110   27.56220771871461   17.00840577363034
C        16.95232858485527   28.35701299295523   16.31326155955975
C        18.19308798494729   27.85669799810804   15.95334620948858
C        18.53735676521798   26.55864568564052   16.28835749616973
C        17.64378196392710   25.75844147894587   16.97904922018987
C        15.07682153173312   23.92426980226365   16.04842068358628
H        13.76566827247407   18.22906990917702   19.32311942908869
H        13.83248569071173   16.73218894341734   21.28094911866835
H        13.50485256735950   17.64190539835352   23.54699144964890
H        13.10951970828372   20.05433311259040   23.86907785018373
H        13.03995630922639   21.56333120718791   21.90887470718283
H        11.39516193662040   19.43473448761502   17.71107034640699
H        11.57664719321343   18.09915614580607   15.64841873578245
H        13.68051561448045   18.07587347956929   14.36763605899105
H        15.61960969689012   19.38678854162734   15.14485946722261
H        15.44919464188507   20.72502864917694   17.22709287396752
H         9.73520839460736   24.36100559607509   17.95748820403709
H         7.98051910915617   23.04504271477457   19.05785649404795
H         8.56359295418019   20.93507371115096   20.21032883336078
H        10.89270461778412   20.16001707188346   20.24801769003205
H        11.84719729354495   24.65900292993967   17.19609782839219
H        13.76071934421389   25.52410575748962   16.68316381140863
H        14.85102774100989   26.03354423930898   18.80678583258790
H        16.72899138640292   24.64472231366835   19.36018413952816
H        15.09550826863559   27.95614923829097   17.29754584462287
H        16.68109182283859   29.36926444192668   16.05697253300258
H        18.89047242724865   28.47908438049477   15.41498775864249
H        19.50316319418575   26.16477062275929   16.01213588743843
H        17.91679449827319   24.74394094536966   17.23118010224735
H        14.33824110418442   23.44143166685063   15.41267661410722
H        15.70556390451035   23.15487368231859   16.50424841824687
H        15.69996584426845   24.57368739342377   15.44041281956597

