59
CSD_code = GONPII | q = 1 | S = 0 | Stoichiometry = C28H26ClNOPPt(1+) | MND = 4
Pt       20.16790529410575  -22.74322563495588    9.28312851642341
P        18.61303056736431  -24.33161225529566    9.36211477042300
Cl       21.63207807033087  -23.88909623311961   10.50509127236383
C        18.66154776515001  -25.45590914619872   10.76902240475571
C        18.75692397091549  -26.83436126064999   10.61428545382518
C        18.83041824284902  -27.63893945710448   11.73874753352117
C        18.81696474713349  -27.07312163024416   13.00310059504452
C        18.72999281717139  -25.69622110140772   13.15528784732903
C        18.65524324634739  -24.88461391251125   12.04103641677379
C        18.68450015288180  -25.30834797570732    7.84181242096876
C        17.56184225950880  -25.92134987355542    7.29423446215440
C        17.69419185493222  -26.67584314577834    6.14148452057832
C        18.93461339461305  -26.81759439280761    5.53856222811930
C        20.05306166003068  -26.20484718833715    6.08392137954576
C        19.93101950106072  -25.44824939578051    7.23458575074121
C        16.98174348153892  -23.53857815654816    9.38044909212963
C        16.73977290614416  -22.30402709778409    8.74507150147426
C        15.42424553410383  -21.81941808337602    8.72358672197034
C        14.39066585893109  -22.50778800614643    9.32611757422930
C        14.64153714082595  -23.71562526022974    9.95956288929913
C        15.92872718650659  -24.22483678771514    9.97651891171220
N        19.01449602034532  -21.56675371202580    8.19720753538952
C        17.73903633824054  -21.47841872496810    8.10191025634871
C        19.86018402813239  -20.66375750349308    7.43905204593081
O        21.60543091826662  -21.00979018580228    9.03244848070575
C        20.85310721495810  -19.97270936870858    8.41048326016893
C        21.73251629143657  -18.98659630321655    7.67491444677258
C        21.25248419046374  -17.71113532438117    7.40493405018830
C        22.03865090546838  -16.80465962832399    6.71739627182966
C        23.30985605217565  -17.16412105497545    6.29999520459416
C        23.79281544993174  -18.43249486580070    6.57141575598069
C        23.00665710238849  -19.34444764643469    7.25421610376323
C        20.59840593872768  -21.48138180755106    6.37652786163720
H        18.77833160597513  -27.26939316388357    9.62517670459241
H        18.90690206431976  -28.70943462825004   11.62595593921642
H        18.88348120428659  -27.70566612027661   13.87475230552108
H        18.73089363315200  -25.26048789531727   14.14243939764761
H        18.60580440179785  -23.80701290140457   12.13616940210386
H        16.59654826352936  -25.80800196395007    7.76746746143225
H        16.82752025113719  -27.15560736251546    5.71332004977878
H        19.02958372822876  -27.40814998146208    4.64054482900915
H        21.01666447019168  -26.32000599220319    5.61217024367054
H        20.79446677733279  -24.96956596659000    7.68813287819305
H        15.21988668956938  -20.87854463432650    8.23408735639703
H        13.39033045358077  -22.10514767968377    9.30175958465018
H        13.83941740979207  -24.26050987951246   10.43218963768881
H        16.12815880123096  -25.16934164444202   10.46387806846538
H        17.32393603423632  -20.67689376122069    7.48772697645135
H        19.25824570699140  -19.88332664170584    6.95392953999760
H        22.15097355968197  -20.65649143248401    9.74721186528081
H        20.25915636936850  -19.43281339732639    9.16780678625798
H        20.26468814451713  -17.42701624265009    7.73907768388543
H        21.65989062947474  -15.81575446623802    6.51140481091348
H        23.92296585555759  -16.45494914529520    5.76642246178941
H        24.78339906753968  -18.71603617280846    6.25135493885831
H        23.38568358664865  -20.33401867612690    7.46300983651605
H        19.88231616784950  -21.96496330717826    5.71629504088073
H        21.21535613779312  -22.24879493880480    6.85008647233899
H        21.23833288321235  -20.82909988341484    5.78880619174740

