49
CSD_code = GONPUU | q = 0 | S = 0 | Stoichiometry = C25H19ClNOPPd | MND = 4
Pd       12.24818883606349   18.42775415985804   -1.94943206779945
P        12.62539096283701   16.48575755690141   -0.98734789619621
Cl       10.09433632271545   17.89935516423414   -2.24117628582692
C        11.81647261887641   16.47436022966889    0.64119995188045
C        11.64680289618075   15.32965085738121    1.41109719559771
C        11.05565882405225   15.42448313421245    2.65873854324211
C        10.63829467551595   16.65425853742880    3.14068443759556
C        10.80579194583879   17.79792576144973    2.37467136938378
C        11.39325074618939   17.71108484519227    1.12652848373106
C        12.39973419499954   14.81877687108680   -1.64765084333293
C        13.45270403147824   14.04749401026905   -2.12802842515077
C        13.19414587791925   12.80228546578383   -2.67396886236994
C        11.89284991321449   12.33397327793921   -2.75578739921739
C        10.84001493129679   13.11485798224414   -2.30206510432651
C        11.08752978685444   14.35850983112632   -1.75350140504178
C        14.37063579120532   16.68484584079541   -0.52034269625898
C        14.96787338764720   17.90140692750200   -0.90464196016158
N        14.23651749858538   18.79431424820608   -1.69126754703872
C        16.25751540716023   18.17009154599652   -0.43170742061111
C        16.93389534156650   17.24486206903429    0.33968231672794
C        16.34876590367504   16.03468306380534    0.67832372075645
C        15.05831447672999   15.76679300044112    0.25934945783599
C        14.83901947917055   19.72908746862678   -2.37992202527158
C        14.26139678799994   20.79564193958118   -3.09946016802964
O        11.93176574377945   20.28482358455527   -2.74501026758490
C        12.84353650330979   21.04345360945997   -3.20021943566707
C        12.44318158927068   22.23629551532499   -3.87521556427106
C        13.34324964733854   23.08222773166191   -4.44873203645404
C        14.72116685448575   22.81289139392331   -4.38404423121030
C        15.15463438070194   21.70096716334682   -3.72598750550241
H        11.96116745108390   14.36864998051895    1.02816179362791
H        10.91694201368027   14.53511793134748    3.25578002358906
H        10.17357995854344   16.72117878051553    4.11307637981611
H        10.46945474522663   18.75296756725825    2.74938200801564
H        11.51027247872553   18.60418896559123    0.49645381338548
H        14.46595721418558   14.42189483450929   -2.07500170129120
H        14.01058567295840   12.19822605518246   -3.04203852151754
H        11.69794144084992   11.36236918866046   -3.18501417363331
H         9.82550241457815   12.75477092611569   -2.38395347998409
H        10.27901105059376   14.99543676885714   -1.41937018120222
H        16.72980870383771   19.11882707267894   -0.63697770540720
H        17.92819766296836   17.47780664895540    0.69066086686149
H        16.88528297182070   15.32031485315161    1.28338637784976
H        14.56931200576914   14.84553170454312    0.54278168325312
H        15.93067537358165   19.71407159014830   -2.40888175697554
H        11.38105610615704   22.42313273690571   -3.92706337601153
H        12.99942336345955   23.96783025445032   -4.96348420512569
H        15.42432616088629   23.48678327131880   -4.84855083745225
H        16.21456785442197   21.49328808225046   -3.66111333721545

