35
CSD_code = GONQUV | q = 0 | S = 0 | Stoichiometry = C13H11N2O8V | MND = 7
V         3.01013721791869    0.34593808758870    3.51581669000241
O         3.88719758513102    0.32103053324296    4.98259816128372
O         5.52122685802124    1.08788135309735    6.32081647509416
O         2.45493140008988    0.90012858818231    1.99116579857464
O         2.70455899930982    2.14112735537865    0.13677704045683
N         4.19558158175539    1.74283282121140    3.21078959374219
C         4.88677196947640    1.09854915614290    5.29457322332500
C         5.10780554533662    2.03643895538721    4.13607536708110
C         6.03307633656978    3.04853355217708    3.93959829852078
C         5.98774006712969    3.75728216996202    2.74154661972256
C         5.02811301355928    3.44114359669210    1.78376518950176
C         4.14024981747512    2.41481271546354    2.06427895752029
C         3.00848332765524    1.82296259215794    1.26192581094324
O         1.65911742919676   -1.04397282685952    3.69816331596102
O         0.33625633211525   -2.79819705192902    3.38532131375274
N         2.49862440825909   -1.63222506442835    0.99364154958510
C         1.06707810722505   -1.91625212991702    2.97840321565046
C         1.25986915835812   -1.75679519776017    1.46712523687058
C         0.14546330260872   -1.75525292314193    0.63644956062180
C         0.33110816095696   -1.58183912772393   -0.72449664864482
C         1.62172937857841   -1.43877670121090   -1.21193590462965
C         2.67233556036022   -1.48005623477731   -0.31269611174687
O         4.40818968318005   -1.06644735135679    2.68317713891844
O         1.40988984314222    1.49645167773385    4.58325148294331
H         6.76283531442036    3.26874591587387    4.70258243721442
H         6.69489053310124    4.55083614088388    2.55646944088094
H         4.96446603268439    3.97016483413161    0.84613467588641
H        -0.83575108011248   -1.88173122413271    1.06608100388942
H        -0.51532680151771   -1.55561120854768   -1.39453039272899
H         1.80964144938245   -1.29459114776792   -2.26367283934017
H         3.69952153090787   -1.38344240957192   -0.63988966512297
H         4.43485135504967   -1.78004958190294    3.33788386383329
H         3.75444548159840   -1.39251655874790    1.96839465785709
H         1.66876744403100    1.42715492759996    5.51428417224459
H         0.75332365704304    0.79264176685998    4.44053127034053

