27
CSD_code = GONVIO | q = 0 | S = 0 | Stoichiometry = C6H14Cl2O2PdS2 | MND = 4
Pd        1.05123733966512   -0.22085692633001    3.73919789327977
Cl        1.82138265944189    1.32053698497088    2.32092104336703
Cl        3.10285949190593   -1.07987674523728    3.98255900043387
S         0.23752038242971   -1.83394338123749    5.24203325856205
S        -1.10457524346097    0.67482215573038    3.49292854771881
O        -1.27532639289718   -0.90661831595686    8.01332165723190
O        -3.51385556224252    0.66983078848520    1.86213522508814
C        -1.58222321043895   -1.64342857377940    5.06725606905464
C        -2.05103052666653   -0.23399309454546    4.77663728475022
C         0.66780195103463   -0.72983016817886    6.63645212880206
C         0.10660899350956   -1.20606235059029    7.96650253577232
C        -1.35303728200671   -0.31850962301735    1.97393236471711
C        -2.82567869630960   -0.53918641835095    1.65177626860455
H        -1.61071017106020   -1.09268262960803    8.89545126335558
H        -4.36829108761837    0.64522620457991    1.42203218863075
H        -1.83555176365418   -2.33015105082291    4.25783958891993
H        -2.03238279830572   -1.99776873392162    5.99421424966673
H        -1.95697470675942    0.38528573066422    5.66993785143948
H        -3.09553263090827   -0.22725693831445    4.46578689066923
H         1.76170379506952   -0.75650725430782    6.64986256774958
H         0.32442307570773    0.28938348174939    6.42123183602824
H         0.27193225336000   -2.28746979356241    8.07250897764423
H         0.63795055445100   -0.68919867533922    8.77697323003871
H        -0.88182712974281    0.30721785930808    1.21155917088573
H        -0.81559332921751   -1.27448962696311    2.04633592900841
H        -2.90558006802346   -0.87289654977389    0.60867727364654
H        -3.24474989726911   -1.33247635565164    2.29253570493429

