43
CSD_code = GOPBES | q = 1 | S = 0 | Stoichiometry = C12H24NNiO3S2(1+) | MND = 6
Ni       10.73715478957129    5.29100206234355    9.98668325149410
N         9.97573820920066    3.47628146518296   10.30215030753661
C         9.21495093596334    2.93338560647097    9.14769708586049
C         9.52843564144051    3.63794363168484    7.83507325969890
S         9.63135862329061    5.45794360408793    8.01801062135174
C         7.88924249874251    5.87184976995701    8.44275579971064
C         7.71251880745369    6.75478109193078    9.66632719775665
S         8.54201239945645    6.23113795039013   11.21133502328115
C         7.94327870639178    4.50789157382390   11.45236624730651
C         9.10332367372683    3.51590389080782   11.50337925964011
C        11.13436325483074    2.61409739958461   10.64799459540282
C        12.35261879673662    2.65915690902671    9.68028893254806
C        13.63035744402435    2.64514901649777   10.52162508704161
C        12.37007080490882    1.47800033203464    8.70341194881282
O        12.28375038966552    3.88886233892357    8.94887195358291
C        12.16414414861770    6.66834214463622   11.05646142185674
O        11.92152093642966    5.53374473268349   11.55392747266861
O        11.58517380389491    6.91213141912624    9.95463534261432
C        13.05533359649277    7.66645563925956   11.70860434524348
H         9.41767621324476    1.86219609753206    9.04032574660255
H         8.14847811267779    3.03215149493054    9.35654851156296
H        10.51496346264673    3.37242924843589    7.45936471880300
H         8.78080335041837    3.40621231492813    7.07650656156817
H         7.34424692162808    4.93527528110237    8.53915972664391
H         7.49675340901886    6.40833600570056    7.57735990546700
H         8.13500039697334    7.74405474890334    9.48850114113379
H         6.64821331225004    6.85940396786389    9.88132075270809
H         7.20832751245118    4.29463547622725   10.68033261022155
H         7.43762086873618    4.48412143440853   12.41751168851244
H         8.70109042387174    2.51074826249445   11.69116183582144
H         9.72867669362572    3.80123291373057   12.35346245612677
H        11.49424555451823    2.95510696831482   11.62052100622030
H        10.79680894238788    1.57630772756769   10.74799817467776
H        13.65931569714847    1.76865187112045   11.16178488839306
H        13.66933445848380    3.53580839249037   11.14655802025096
H        14.50789372251917    2.62365596913016    9.87869661003957
H        12.48122288002837    0.54635931958429    9.25034420318067
H        13.21503002061026    1.57490021614406    8.02581109797027
H        11.46552928800762    1.42615413848342    8.10488722486615
H        13.17996167353096    4.15813674785330    8.71302555786139
H        13.32760677959899    8.44389482012143   11.00080601905910
H        13.94075726723488    7.17517745795468   12.10538879897364
H        12.52129557755034    8.11578854652656   12.54532358992728

