42
CSD_code = GOPFEZ | q = 0 | S = 0 | Stoichiometry = C21H14Br2IN3Zn | MND = 5
Zn        6.73088537073413    2.64613370824945    1.59893570110609
I        -0.43337386294639   -2.47145797740312    8.28047036034170
Br        7.76570785718589    2.05959656731451    3.69435214179136
Br        7.40518098509170    3.71196209752607   -0.39770021338731
N         5.45937387539571    4.34089996404697    2.33681674993751
N         4.85124138736778    1.79760291522897    2.20489176682658
N         6.64220019184277    0.57947139068601    0.73180843935482
C         5.74864983238191    5.62417642737822    2.22257402303755
H         6.64345393786633    5.86399706733109    1.66397067465917
C         4.95605750294239    6.62032138662765    2.77273478612266
H         5.23009147252606    7.65648846987308    2.66005721220017
C         3.81207875744879    6.24687970922412    3.45842317635926
H         3.16306620008620    6.99090568863932    3.89551395838210
C         3.50605957493928    4.90090039529111    3.57309019142905
H         2.61079330188427    4.58732681160411    4.08524859041565
C         4.36310956715070    3.96589848276361    3.00002746625097
C         4.14102881716388    2.51355014052382    3.06967465492614
C         3.30306646728018    1.90352059620685    3.99629209788752
H         2.76366689922731    2.48758706269335    4.72374995401454
C         3.22678137849417    0.51268085662238    4.02741354576897
C         3.98834692942859   -0.21312710064573    3.11379912555507
H         3.96090730549534   -1.29022430329607    3.12662492971975
C         4.79403749956192    0.47039052887376    2.21070121948680
C         5.67968415265141   -0.19247697316091    1.24146322208582
C         5.54134425624807   -1.52502514556529    0.86391948539783
H         4.74409448790274   -2.13139969365482    1.26258316017025
C         6.43449921586685   -2.05631167500180   -0.05175495358833
H         6.34812458155410   -3.08765923143650   -0.35935935786624
C         7.43184558387926   -1.24495618955848   -0.56701068946164
H         8.14639256874693   -1.61891741670583   -1.28187429576217
C         7.49066538535569    0.07478880619568   -0.14510630733810
H         8.24024386796407    0.75363488891172   -0.52921740397234
C         2.38215651328807   -0.17346494720076    5.01315983518093
C         2.85055446625526   -1.30400476217764    5.67906548767628
H         3.85172067600787   -1.66183314450796    5.49177983615320
C         2.06039260759272   -1.95134744674109    6.60962034907604
H         2.43699029152747   -2.81967187022660    7.12758784265931
C         0.78704186612452   -1.47507247500439    6.87014776708709
C         0.30131552328543   -0.35475831582238    6.21806947699076
H        -0.69305954282379    0.01023494379856    6.42371434508833
C         1.10172205474740    0.29527881791091    5.29820962392354
H         0.71646019527475    1.15968094459295    4.77783202431429

