42
CSD_code = GOPFAV | q = 0 | S = 0 | Stoichiometry = C21H14BrI2N3Zn | MND = 5
Zn        1.93119607332359    2.55662525407491    1.63791483385212
Br       -4.94295709000081   -2.27702189565737    8.61706534985082
I         2.10432569198216    3.54449487804339   -0.68644329690103
I         3.51840234995181    2.21583056171574    3.60448361267834
N         1.85053907258533    0.39814722941193    0.96104543674608
N         0.14528790066628    1.69724242639608    2.48393212687859
N         0.72546132256796    4.25954315856067    2.51541428931862
C         2.65722057502168   -0.15630681972373    0.07520673239079
H         3.40455730256795    0.49151074682821   -0.36265536964430
C         2.56503855873590   -1.49028694315582   -0.29092946686539
H         3.24774599460851   -1.90411888891467   -1.01483013188804
C         1.57259611866841   -2.26279342660737    0.28936429560962
H         1.45544128405157   -3.30252872506556    0.02299033339414
C         0.72510728848568   -1.68168858226203    1.21763512948258
H        -0.06696388103551   -2.25922657080045    1.66624944064685
C         0.90160914996645   -0.33867219269349    1.54018717768642
C         0.06772266291347    0.37060300279109    2.52228301344111
C        -0.72322838995227   -0.28171209264931    3.46157303895314
H        -0.76438096440513   -1.35773098849194    3.49846452205619
C        -1.45721158980286    0.47199969375134    4.37421159366170
C        -1.36980777475851    1.86015259519418    4.30259458431695
H        -1.89351401994511    2.46803096711220    5.02183348145380
C        -0.54685063195451    2.43962910494618    3.34265030643125
C        -0.34025541950458    3.89141229178664    3.22797491256190
C        -1.18671115989970    4.83210274624597    3.80882881844017
H        -2.06237322336499    4.52483487735808    4.35736716298858
C        -0.89746328701979    6.17746310920196    3.65379148032131
H        -1.53946459799478    6.92559031866701    4.09410412574034
C         0.22178163218599    6.54480784772784    2.92526998336432
H         0.48481555941945    7.58019838277447    2.78321744294130
C         1.00070917005244    5.54228306583893    2.36836699958442
H         1.87592155853941    5.77930312459995    1.77866908389449
C        -2.28885613110252   -0.18168237051306    5.39243370731186
C        -3.55831044143684    0.30948831547620    5.69096569808694
H        -3.94294124285889    1.16629126986564    5.15799874242528
C        -4.34852316175139   -0.30963258685247    6.63967436455523
H        -5.33544168148378    0.06591370858792    6.86113004146613
C        -3.86025975851000   -1.42205209707718    7.30629563658286
C        -2.59718519701263   -1.92187020415011    7.03255663780408
H        -2.22697461355587   -2.78394547486717    7.56523518282975
C        -1.81960392520068   -1.30384039163584    6.07276836606480
H        -0.82740108374354   -1.67888842583848    5.87181057948653

