116
CSD_code = GOPHOK | q = 0 | S = 0 | Stoichiometry = C50H61N2O2V | MND = 4
V         8.73230039879685    3.70099205369913   12.44568344121192
N         7.80409686431348    3.81211809680327   11.12667462188996
N         7.51448753127225    3.66866853744882   13.76658735238775
O         9.42217033041897    2.18554362469816   12.49439207386808
C         9.80127851156275    0.95199647243084   12.76186012024339
C        10.93490893833663    0.34222664784701   12.17581728872515
C        11.17947943726626   -0.99119945167610   12.46424543151803
H        12.02169397460265   -1.48859675077054   12.01187428669220
C        10.38785969338203   -1.73617593872626   13.32761252681755
C         9.34115067909145   -1.09773569723980   13.97027785850854
H         8.74198788163735   -1.63641097712476   14.69195113375483
C         9.04427189038971    0.22557197630483   13.70507025805354
C        11.90195197366041    1.16431923972759   11.33234027390135
C        11.18625991814374    1.74739016041678   10.10693892811730
H        11.88271658705747    2.33913035744494    9.51507670444604
H        10.34727039515112    2.38332264610575   10.39313365533023
H        10.80972149196033    0.93522123702564    9.48685300793491
C        12.46304724580679    2.27936620376536   12.22918965873026
H        12.97508071490742    1.84110998770564   13.08539194574760
H        11.67239088605177    2.92925318004007   12.60524574680315
H        13.17498085589666    2.88749965373682   11.67471248114875
C        13.09285712610123    0.34600220536808   10.81888147360963
H        13.67723772629412   -0.06234422221287   11.64009697849731
H        13.74401016215269    0.99426370636602   10.23530508833372
H        12.76421872859635   -0.46597453888664   10.17441531417043
C        10.68141106941833   -3.18756139534594   13.56491529073591
H        10.33814490239509   -3.78269980517990   12.71801058021021
H        10.17495301958879   -3.54522860016176   14.45818477913051
H        11.75135899645145   -3.35388952443109   13.67699369316355
C         7.98348448344453    0.95411158012612   14.48971055970760
H         7.20109282493642    1.32831028910838   13.81852257061371
H         7.52560456355027    0.27214567836230   15.21023004617808
C         8.39921076814186    3.42581275702339   14.83064416606762
C         8.65176625011858    2.10078511447987   15.21215067802101
C         9.60160714022964    1.84526894186959   16.18540068602624
H         9.79236887109106    0.81323940543757   16.44208145457510
C        10.31861697045372    2.86651466420238   16.80458863097759
C        10.02729073969294    4.17415422417164   16.43978392866498
H        10.54126169496950    5.00413749322941   16.89886332940342
C         9.07209640729114    4.46802079124713   15.47450287035231
C        11.38663906470374    2.50766496011751   17.82548898851792
C        12.45769488849675    1.65340421120391   17.13147671202744
H        12.91057911954834    2.21205969188550   16.31442929925195
H        12.03350591892526    0.73992493421916   16.72293183028825
H        13.23895223486594    1.38191560527815   17.83862172284783
C        10.74643958902262    1.71199749929685   18.97131525126477
H        11.49642927871826    1.46336455077097   19.71938996910826
H        10.30440238351660    0.78643754275738   18.61347228363689
H         9.96559105937353    2.30130966207999   19.44795643821826
C        12.07017888544740    3.74011144280705   18.42364775625740
H        12.56515209390293    4.32695651055782   17.65316637347727
H        12.82492370373419    3.42328641515501   19.14088011828090
H        11.35351567729362    4.36955825803351   18.94643169375655
C         6.16821762469334    3.71143749334197   14.02360386318735
C         5.67692784184842    3.85955027806522   15.32914253255208
H         6.37227355075988    3.92687791597445   16.15545078504709
C         4.31908781515610    3.92244297545527   15.57190069808821
H         3.97322689750842    4.04178577239023   16.58954799493521
C         3.39658119415378    3.83741511742235   14.53920140635770
C         3.88190653019081    3.66966749086434   13.24468718675898
H         3.18192768135253    3.58304031773596   12.42516040478075
C         5.23300522734655    3.60099413883995   12.98456645746518
H         5.58920361382163    3.44422807172401   11.97627425356800
C         1.92123067488876    3.91551584509798   14.79508131635250
H         1.41885923683892    3.02929721745807   14.40876118205266
H         1.49345253647756    4.78374092133875   14.29392192101167
H         1.71491565395118    3.99526629156620   15.85957883246807
C         7.03606818062996    4.02768573768945   10.05237772215412
C         6.28809817399360    5.22620772709906    9.92588255534883
C         5.50399874546712    5.42494812067657    8.80347181408843
H         4.93949070858149    6.34392108249925    8.72249539760666
C         5.42091612345635    4.48387559698787    7.78698452575567
C         6.13171688639175    3.29698586668844    7.92822985819130
H         6.05854569720156    2.54370654593931    7.15547961532515
C         6.92051953461776    3.04754957870133    9.03374230208381
C         6.29548744681120    6.25284940990870   11.01942549857313
H         6.52600231171740    7.23711323780145   10.61489026736850
H         7.02965652278375    5.99222637364216   11.78267869995140
H         5.31182628248605    6.30149325783304   11.48772686312415
C         4.57517744168521    4.71737502685692    6.57226075051821
H         5.17813192856457    4.64024456784876    5.66827456746322
H         4.11529120894655    5.70173688269633    6.60104188035663
H         3.78700792533156    3.96753430688972    6.50911520215689
C         7.65675745885926    1.74911505707903    9.16528291751800
H         7.05863193070647    0.93023553508186    8.76976647646828
H         7.89043754303747    1.55635120030309   10.21455250672431
H         8.59022932128628    1.78882344005510    8.60339953368203
C         8.74441834224888    5.90602226719004   15.14970329417225
H         8.57142745424466    6.44358082589612   16.08662273214596
H         7.81900074513868    5.94256176188061   14.56035498916222
O         9.46185425705043    5.19086258143819   12.57330201253992
C        10.09501208352153    6.24341376459127   13.04890352140321
C        10.98837428050446    7.01870321573606   12.27103003409248
C        11.66516082969007    8.04964719584627   12.90407061250617
H        12.37108356691168    8.64608536316114   12.34977786249515
C        11.47463769623210    8.37215734510256   14.24139707080644
C        10.52896459063363    7.66206456538633   14.96095766348891
H        10.32062910867922    7.93153655955031   15.98762804776441
C         9.83308906667855    6.61689913080857   14.38268601695065
C        11.16389194423552    6.74709163666123   10.77985820481878
C         9.79349403604233    6.81202017300278   10.08859733971689
H         9.14596874875572    6.00436572070142   10.42817230666035
H         9.91497800920348    6.71677942900863    9.01117268327372
H         9.31110449708931    7.76490819012201   10.29859833751567
C        12.08151050493798    7.76940975417542   10.09902608294930
H        12.13641539377892    7.54471928233091    9.03559190830525
H        13.09147271036049    7.72646615636344   10.50056867698624
H        11.69410740581449    8.77949730463891   10.20875125270213
C        11.77040670049597    5.35509553211665   10.57459493970080
H        11.09270485562732    4.58939913905421   10.95095602579316
H        12.72451546300045    5.27945622484885   11.09421544172948
H        11.93521994677251    5.17263474660283    9.51402085452902
C        12.24493307427538    9.49915082560465   14.86278365410621
H        13.30803964208222    9.40249142848928   14.64806961014835
H        12.10634315999209    9.51599066283246   15.94099073880326
H        11.90953189226813   10.45487950869803   14.45932094439855

