31
CSD_code = GOPJEA | q = 0 | S = 0 | Stoichiometry = C8H18Cl2N2Pt | MND = 4
Pt        6.32810147454972    1.63938918624937   13.92660744162648
Cl        4.92594905089399    2.41989171835111   12.34787330453199
Cl        4.70386751204105    1.15793463592613   15.41052772130230
N         8.09786125568306    1.97214179387029   12.80153649247567
N         7.87554000597926    1.02254055838954   15.20219674770199
C         8.66024991805347    0.69687033993629   12.31208580019348
C         9.28540454909222   -0.08920504928903   13.48019802830541
C         8.41792413104788   -0.26481536294026   14.73316395994570
C         8.82601343479218    2.13671774744473   15.17525427206677
C         8.94016845981470    2.72007635437963   13.73967717636817
C         9.74521848023809    0.96592990909258   11.25977783982466
C         7.52702138364022   -0.09329984425999   11.65252443218911
C         9.22358573498135   -0.96043938174107   15.83336678378147
H        10.22736107158908    0.38413455567175   13.76482973683879
H         9.53535188756103   -1.08526250623848   13.11167882141505
H         7.55539510843120   -0.89966513705959   14.49737758637993
H         7.49199362194227    0.89601546922460   16.13873307597729
H         9.81075112816418    1.82762445785541   15.54660553419276
H         8.44667378855040    2.91100439785861   15.84537245777356
H         9.98798331062541    2.73360286990270   13.41496885331434
H         8.58226301907482    3.75212696778559   13.74611307909920
H         7.85727315523608    2.55045363663897   11.99717615515109
H        10.15295738562067    0.02759927157543   10.89420570299810
H        10.56756987847524    1.55185956463289   11.66519832215945
H         9.32348377148236    1.50394446983375   10.41373031657599
H         7.88807165190261   -1.05514612230833   11.29820760296782
H         6.70326521991240   -0.26012688903107   12.35217724936608
H         7.12683428921181    0.46100373714047   10.80691359934750
H         8.60074960940681   -1.12284106488853   16.71011528230096
H         9.57550859329336   -1.92761394073503   15.48555336551361
H        10.09010811871347   -0.37124634326748   16.12725325831532

