42
CSD_code = GOPKUU | q = 0 | S = 0 | Stoichiometry = C13H20Br2N6Ni | MND = 6
Br        2.80229324639742    5.96213380795713    4.59676745603448
Br        3.15666291789085    3.21297164653449    2.95946730247866
Ni        4.49847772592551    4.51740846088270    4.16697668041765
N         4.31085242902943    3.08163099076370    5.99065641302773
N         4.96292985918395    1.93363533499478    5.81623048957610
N         6.29016973839958    2.98715196889581    4.15751746614312
N         5.86542567457582    5.56862010242824    5.02753106411250
N         7.07193625507464    5.01090730915141    5.12005907559600
N         5.25545471199503    5.59484235976882    2.23089096691573
C         4.69515240876919    1.06551890046421    6.81147027173623
H         5.12496016583063    0.08435261929275    6.83362439615788
C         3.82758580554885    1.69762936354507    7.67093685267013
H         3.40259618227108    1.30760196203580    8.57204299772601
C         3.61936321491504    2.96159019546016    7.10608628951133
H         3.00692779081543    3.76945042745670    7.45573027213782
C         5.76343388131313    1.71827365365572    4.63530137372284
H         5.13262537811317    1.30232039890758    3.83768618634665
H         6.55477761312660    0.99361160328546    4.89113096384232
C         7.24104965384240    3.57876498438252    5.08230875357458
H         7.06064852299237    3.18026165022911    6.09152387623078
H         8.28738869257057    3.37334403347614    4.81146132542421
C         8.01141594330116    5.94015035467546    5.37947154615635
H         9.04470101225850    5.67994493623190    5.49407966303966
C         7.37171722863912    7.15457654684761    5.44547647296004
H         7.80785781265906    8.11409719842660    5.62864530113871
C         6.02376810251277    6.86554638173493    5.21391897916055
H         5.18659181332614    7.53559362557406    5.18288880433908
C         6.78837657097847    2.91572700872297    2.78049605283708
H         7.18190871935919    3.90319872328458    2.52746515025352
H         5.93132515159182    2.72701052790910    2.12865281907190
C         7.85883455782874    1.85392839105998    2.51255868025279
H         7.43442891839373    0.85576028461520    2.63676611648114
H         8.69034176738276    1.95419893776524    3.21614593629221
C         8.38820687470738    1.99453452669695    1.09046228193907
H         8.84701798526026    2.97014814013369    0.94552931164985
H         7.57669858879432    1.88876443791660    0.37496621781913
H         9.13267457429248    1.22990366772928    0.88311065299302
C         4.52838336425901    6.20695946449554    1.58591885687294
C         3.56736999618427    6.95123275314248    0.83850047686144
H         2.75482117630818    7.22258996278976    1.51569142222310
H         3.17210278757175    6.32732696753911    0.03774462130472
H         4.01934518580797    7.85048538914173    0.42301016297892

