82
CSD_code = GOPLAA | q = 0 | S = 0 | Stoichiometry = C30H47NNiOP2 | MND = 4
Ni        3.29610969188402    8.28168330145674    6.05142763845805
P         4.12368839806783    6.59152369168489    7.15225818997268
P         2.39394854057621    9.66488498416726    4.61875748376902
N         3.55625267504814    7.08897185348749    4.45366701096712
C         4.82725935170173    5.59877537304424    5.80990882199221
O         1.92276066966187    9.05077535944951    8.12607586262704
C         4.45134988068644    6.06092134427872    4.52557502362153
C         2.61084594741749    5.65645531189528    7.71953666602522
H         2.24663169759174    6.18482412965393    8.60909084715153
C         5.97485234639685    4.42675839179590    3.59457764280605
H         6.45464592540348    3.99786655943165    2.72499449132942
C         1.19708797249019    8.75646096980306    2.20334103279368
H         0.69629912074124    9.71157484258112    2.12235397277220
C         5.32485802124055    6.37707746986556    8.55783659073631
H         5.40262928615552    5.30455701843536    8.76598308292875
C         0.80557679219616   11.66475106159145    5.84188438721248
H        -0.15365922931566   12.18096238278583    5.85848776406597
H         1.57288516740332   12.38656700876652    5.56644539713762
H         1.00378093928128   11.29818685251078    6.84627891321813
C         5.70172909430261    4.53565454892728    5.95922996204811
H         5.95705775340293    4.17559776440435    6.94650793354161
C         1.52832119638674    6.53499121239431    1.41485433815194
H         1.28938756583934    5.74540669593233    0.71498777170636
C         2.91209412986382    9.31914464364245    7.49030564826117
C         0.74825056387219   10.50164784378502    4.85776817588454
H         0.42743714879777   10.87890162535757    3.88031035823794
C         2.39104469090299    6.27271501038899    2.45213134722804
H         2.78304990738063    5.27368241613013    2.57401713308160
C         3.51748041417133   10.95572816151233    3.86162315855829
H         3.80679274559506   11.63530014292362    4.67333513347908
C         6.69867320116555    6.89981797332758    8.14792816055219
H         7.41826523783142    6.74541618430684    8.95108190983877
H         6.65253220344646    7.96325912877044    7.92759483708604
H         7.05839380734257    6.38746962815515    7.25796195520524
C         6.26744240642484    3.91365858838128    4.85459835528667
C         4.81057468680591    7.09122335694251    9.80272762962633
H         5.56478164942261    7.07624331588456   10.58863210050923
H         3.91008670536636    6.61691744423636   10.18591290968954
H         4.57298904787600    8.12731997708031    9.56960791156833
C         2.06424392194223    8.51325840101472    3.25850514138641
C         7.19665825055865    2.74898410533943    5.03374594340710
H         7.55251783856551    2.38749703947572    4.07207963959866
H         6.69058588221109    1.92956571157307    5.54480410671653
H         8.05968689071733    3.03361587975639    5.63631569830129
C         2.72852716508588    7.26887088652664    3.38887502648238
C         5.09519284630100    5.47318810757407    3.42430642631100
H         4.92591075958360    5.87160866145406    2.43449554718355
C         0.01750564561100    8.05011731568811    0.09363087654715
H        -0.40940310683071    9.04873979172790    0.15580193421830
H        -0.79672850462374    7.32582016736302    0.07692951555438
H         0.55687563303217    7.96421680915311   -0.85021181804669
C         0.93641259364734    7.78659904716257    1.24986464512877
C         3.75792662502738   10.57287529075131    7.75872816833017
C         2.86959243801054    4.19177046221864    8.04953846919692
H         1.92692477287264    3.69405989126051    8.27350470409072
H         3.51923466092604    4.08188063477037    8.91511947288133
H         3.32801998030786    3.68686666420431    7.20043013339883
C         4.76054304946178   10.21428337315917    3.37312094730794
H         5.55791404651896   10.91141796276048    3.12122850917380
H         4.52014975667632    9.62665532602094    2.48871617923704
H         5.12525091551855    9.52725187018775    4.13974092134326
C        -0.24104675836350    9.44337968847419    5.33932457594014
H        -1.23589371298428    9.87206947521573    5.44962877978362
H         0.07321944077377    9.05413352043762    6.30721442379975
H        -0.29617715972606    8.61650407692264    4.63253247171747
C         2.89313862746307   11.76248744439653    2.73054554318275
H         3.63354815563452   12.45067093033566    2.32379039957860
H         2.04294884231214   12.34796783226272    3.07295689487509
H         2.56987038128460   11.10400310372257    1.92758439127568
C         5.21049650077712   10.37317946737400    7.32978831114446
H         5.24463190984934    9.70569135214194    6.45500887565016
H         5.78243532147311    9.92098900624548    8.13648320349340
H         5.68003719744044   11.31828157360155    7.06824620151367
C         3.62720573834148   11.03503875706647    9.20750673338836
H         4.11372794445653   11.99895221221667    9.33965214027862
H         4.08867921051051   10.31966444450927    9.88462379870006
H         2.57796334614315   11.12826065806850    9.47708810982509
C         1.55993630626884    5.79724465169925    6.61864465831994
H         0.58984645621863    5.43794321536758    6.95946419437306
H         1.85083814706224    5.22766915726307    5.73675410817851
H         1.45430754757429    6.85413958791089    6.33222217487685
H         3.30715714555081   11.33241287646485    7.10697227322251

