85
CSD_code = GOPLEE | q = 0 | S = 0 | Stoichiometry = C31H49NNiOP2 | MND = 4
C         2.92565630709936    4.76949099599283    1.31156654906943
C         3.03464558995076    3.30849502724724    0.80795168073951
C         3.24203200221705    2.34025880059252    1.98275538179020
H         3.89578724787327    1.51831998648222    1.69952909784414
H         2.29335220743808    1.92119957704813    2.30844873545137
H         3.70211957331235    2.86812496334843    2.83908709302164
C         1.74417119112669    2.97691633516280    0.05299578779098
H         1.79234463986223    1.95964714517252   -0.33072594990104
H         1.61101951806714    3.66070672975961   -0.78192676185518
H         0.88303495153414    3.06221149038934    0.71076410174738
C         4.20914607523530    3.24909857072140   -0.17437494878665
H         4.21836010275815    2.28534447950452   -0.68034948856274
H         5.15345562424737    3.37737108653344    0.34413707288753
H         4.10963716117402    4.03380130767342   -0.92108458607366
C         5.61775320976283    5.26066694297566    4.87671569703140
C         6.88017889109321    5.10837486309233    5.42488622876412
H         7.76090603895438    5.31178361142253    4.83524948079076
C         7.04948192120947    4.70036060534963    6.74065036460259
C         5.91461953237642    4.41011788684986    7.49239831772712
H         6.02958712166966    4.04231329490803    8.50311270606886
C         4.64876216568658    4.57798078093551    6.97720819816708
H         3.78523189721038    4.31758906107411    7.57246237006276
C         4.46397447708655    5.04680728664320    5.66786248395071
C         8.42207874007949    4.57334093209044    7.33350202714468
H         8.73521964525166    5.52300019466403    7.77127114933259
H         9.15186565435669    4.29766654639666    6.57426875533758
H         8.43472483428750    3.82166454494036    8.11998024149413
C         0.92077932680094    5.76701365818833    5.15005363988114
C        -0.18374124768695    6.33140671234986    5.76999165313420
H        -1.14314367044962    6.33503447080887    5.27106436312318
C        -0.08306261447943    6.92249082078627    7.01858282891275
C         1.17477604327386    6.97080807995818    7.61765556453729
H         1.28227989300826    7.46824467852128    8.57232426585752
C         2.28396889075973    6.42351153379056    7.01856826121889
H         3.24818655187118    6.53012324993748    7.49367129215219
C         2.19155519802245    5.77148494366083    5.77352404991364
C        -1.27662285099127    7.52408259438989    7.70020108165318
H        -2.16220239899463    7.44813973109532    7.07295614493280
H        -1.10092539878439    8.57616429877211    7.92465745683700
H        -1.47688140623537    7.01321450466254    8.64255853447454
C         4.19028013447906    8.07752375969033    4.01787547982599
H         4.14143224310735    9.16299649966841    3.94064280530885
H         4.41211011585939    7.81481828162516    5.05072833686668
H         3.20999365884232    7.66753179804909    3.75856359606916
C         5.24514097136637    7.51887371445833    3.06863488184488
H         6.24030760477536    7.84883850207698    3.39316758809113
C         4.95869465817483    7.98012482416402    1.64183114498627
H         4.91981586555045    9.06791635771224    1.59994671141019
H         3.99797190348511    7.58800558381800    1.31267935840329
H         5.71808882672810    7.63985020099694    0.94171695320439
C         7.87389620336337    6.00714078171434    2.09915489440159
H         8.63437968975355    5.55181380759502    1.46474552577527
H         8.28893081395283    6.10585725009548    3.09733105228679
H         7.67375764673241    7.00338212283547    1.71516007486838
C         6.62362588136670    5.13021209176234    2.07773729757329
H         6.20965473761566    5.17608380098161    1.06076530407875
C         6.97171458082543    3.67494884322666    2.39151696363468
H         7.59596893597618    3.25184650504053    1.60509506341623
H         6.06848621213117    3.07309727948682    2.48035682860510
H         7.51072282716244    3.60042620388577    3.33219090372706
C         0.38553051060315    7.47034750638359    2.43316309515554
H        -0.26115369994131    8.15657287056040    1.88871038452702
H         1.32575078493267    7.37964002688665    1.88933009488045
H         0.58727703102142    7.89139151650326    3.41750111049571
C        -0.26953872455284    6.09720094354008    2.55784962822261
H        -1.18694961247027    6.18491836599547    3.15070034481556
C        -0.61572782333853    5.54097047750281    1.18221133264143
H        -1.34786524264197    6.18544841636737    0.69702605105570
H        -1.03866049649338    4.54018094101445    1.24959308039331
H         0.27235199111082    5.50906580629333    0.55703511397032
C         0.80854852995600    2.63853003996802    4.85191763681937
H         0.49552339825062    1.59681279147128    4.90481030931067
H         0.65050027058654    3.09701454319609    5.82655936639602
H         1.87725764072324    2.67340926675080    4.63692828676677
C         0.01631057674830    3.39538918758280    3.78686464860238
H         0.06528541464304    2.83948709049191    2.84227538809558
C        -1.44319694837938    3.52805990704759    4.20247694796544
H        -1.86377189930721    2.53599772626691    4.36546046107059
H        -2.03856228387715    4.02381606268708    3.43934877807313
H        -1.52545426085833    4.08344503041349    5.13350725392001
N         3.24395145560834    5.25481314285131    5.08653621300808
Ni        3.08179076446530    5.00430362345544    3.10699648165233
O         2.74204289451413    5.68466793344682    0.54893104410818
P         0.91398986047296    5.01392945255391    3.49929031807424
P         5.18628371960422    5.65902679795475    3.15568494340050

