104
CSD_code = GOPNEG | q = 0 | S = 0 | Stoichiometry = C38H55F3O3P2PdSSi | MND = 4
Pd        9.01173333079845    1.52792327246548    3.86516001652453
P         9.91889376431522   -0.57487902763740    3.48636433972545
Si        7.60800589647293    0.41582192143330    5.27904353030492
P         8.10746775747288    3.43121151478436    4.83863036960347
C         8.51712501995954   -1.18969456075103    5.78346413347617
C         9.54827823618909   -1.61793493693193    4.94572132331740
C         7.26414774691380    1.60930555820176    6.73394202946376
C         6.74036756129155    1.21770769559018    7.95672613940218
H         6.54216467265168    0.17378614749379    8.13974559306553
C        11.77183298490425   -0.59766909703575    3.45759648834804
H        12.14092584978584   -1.61398873064292    3.64622795876444
C         8.83263282668291   -3.15698431856934    7.14475037286235
H         8.54790029289958   -3.75611004878519    7.99727944808540
C         6.65805276566797    4.24573122624434    4.02353322092139
H         7.06894794970810    4.72314032407277    3.12766436843213
C         7.20967797908397    3.89672855995833    7.49458602826699
H         7.38422954635725    4.94927641720703    7.32856556358515
C         7.48305446117797    2.96758357820987    6.49726645501411
C         5.73065800743546    3.11577134348677    3.57532289611139
H         5.34688559939883    2.59388467858624    4.45748652898219
H         6.31271039027487    2.40758377974903    2.96802313571536
C        10.22434900968411   -2.79937279479328    5.22839624165515
H        11.03224140576961   -3.13569214638563    4.59588770956149
C         5.89646979220087    5.26899174648129    4.85761751477975
H         6.55800143942469    6.08087814729065    5.16857431444362
H         5.49222881931376    4.79072655178638    5.75315922197279
C         4.74277772998823    5.83549612497201    4.03047013729433
H         4.18971327242187    6.56850520369098    4.62232435472252
H         5.14354171949396    6.34609965395456    3.15226092550872
C        12.17947466414056    0.32472782121954    4.61174020329678
H        11.71243835104891    1.30609602631730    4.43983230092486
H        11.79824774606130   -0.07584970334084    5.55866176161878
C        12.33241115488228   -0.09302049590012    2.12993825908085
H        11.88024723146473    0.87122313255984    1.89293523476330
H        12.07964716994282   -0.78795243399411    1.32561203690566
C         6.46826726011920    2.14365150667555    8.94850317242541
H         6.06968833296750    1.82024455250931    9.89896645769515
C         3.80687583935079    4.71737965035892    3.58070635941727
H         2.99115335239137    5.13427360507662    2.98660817047258
H         3.36963208972795    4.23772751073167    4.46004142077628
C         9.87393564035768   -3.56282169075899    6.32787690300657
H        10.40874812378762   -4.47658186528004    6.54256103639674
C         4.56868384430718    3.67715910866228    2.76324195604838
H         4.95973139425131    4.14016796401436    1.85543543319035
H         3.89450314783687    2.87081829954412    2.46685045058243
C         8.16046655782069   -1.98003157033163    6.86562312142584
H         7.34527287496751   -1.67346538900984    7.50129276612291
C        13.69245181567404    0.49959019928576    4.67571063233529
H        13.95130372431223    1.18682356740118    5.48394161149293
H        14.16479819451044   -0.46315093737042    4.89124568769232
C        14.20938481676225    1.03441857352674    3.34373284705277
H        15.29189464829062    1.17258083377093    3.38814355556110
H        13.74853901643603    2.00342537629833    3.14286212952024
C         6.71112116086971    3.48691113497015    8.71851304537318
H         6.50709430568464    4.21595130574849    9.48920379489332
C        13.84760239854407    0.07215683534837    2.21690595163352
H        14.31543160912264   -0.89954278181421    2.40212207637139
H        14.22550792109924    0.45218396266023    1.26626887730515
S         9.66324752173007    2.55465978797278    1.71154899542530
O        10.72064941142892    2.69611165327312    2.69275916293326
C         9.77516786234551    5.54221699857962    4.02245743812739
H        10.06813339249868    4.85913138684480    3.22380379550406
H         8.93249726160286    6.13686769756426    3.66189006961728
C         9.29347291714693   -1.56846140257836    2.05462776301654
H         9.69174934425908   -1.06625280360800    1.16659157918054
C         9.36178720768046    4.73271364127250    5.24939418739907
H         8.96545145572312    5.41077897471248    6.01613283549629
C         7.77361354457323   -1.40105506660120    2.05222478246994
H         7.54208523706429   -0.32615307786680    2.05140845602810
H         7.36007802155827   -1.85153385920742    2.96005927179809
C        10.55086292330464    3.94860918992835    5.81533195709465
H        10.86129499242411    3.21429623776952    5.05727432054870
H        10.24125003424084    3.40394339064049    6.71536974867623
O         9.44089619028496    1.22027920169618    1.21901194506552
C         9.67407409576300   -3.04407587497318    2.03425320922531
H         9.28046057192241   -3.54109234763922    2.92424868996758
H        10.76023886237683   -3.16091167187682    2.02520527610187
F         9.66393690187191    3.42576494772886   -0.85121573565964
F        11.59709522761420    2.79915420193707   -0.12344684300429
C         5.83967771731266   -0.19642601585355    4.73862312852579
H         5.07357737421388    0.25631782501476    5.36025852529575
H         5.76025349604661   -1.27335177127463    4.84941271974562
H         5.61956994496079    0.04988795993347    3.70460724114841
O         8.48716742040104    3.35301935368136    1.93964476911348
C        10.95111164978545    6.45681135602242    4.35604306626152
H        11.24355686003925    7.01086344387478    3.46247337437838
H        10.65121698222800    7.18111214386010    5.11947164630031
F        10.76294633419761    4.68334705088979    0.51628442046641
C         9.07660185876082   -3.70182705473842    0.79074594995543
H         9.49261567130030   -3.23184799038023   -0.10291055538896
H         9.34374090705657   -4.76090068237772    0.76905024958257
C        11.72671373342508    4.86823169760469    6.12456620431672
H        11.44399593827789    5.57518992822092    6.90987400552234
H        12.56942642699659    4.27942458987055    6.49292584426301
C         7.16977620827178   -2.07192965838081    0.82327808112886
H         6.08221829909936   -1.97436475113065    0.83961351909454
H         7.53956531634666   -1.57122628191978   -0.07335387798284
C         7.55857713370277   -3.54765772279414    0.78186855968053
H         7.14404123883088   -4.01762387390156   -0.11224078501527
H         7.13949016845176   -4.05732835912695    1.65312153824085
C        12.12945336197473    5.63513657410164    4.86871202027057
H        12.97901225929371    6.28749296678262    5.08223286313262
H        12.42879716437834    4.92542885911781    4.09513545867602
C        10.45528334226002    3.40980732442760    0.22766351508213

