67
CSD_code = GOPVOY | q = 0 | S = 0 | Stoichiometry = C26H36ClN2NiP | MND = 4
Ni       12.70282606503497    2.99075191256643   37.23736911450951
P        14.36319176508289    1.73765142005672   36.90990786476520
C         9.00563296144419    4.32250725726227   35.87053726469384
H         8.58003169530696    5.08609731623265   36.50486162947994
C        10.70168235003043    2.63827651045842   35.43973151533850
N        11.82508317574835    2.00928892276734   35.91568923369520
C        13.59707563499082   -1.47040608712462   34.44580052284000
H        14.08503250204699   -2.33550887552596   34.02357038558350
C        10.10614797381412    2.40887903926902   34.19046858069192
H        10.56840845141665    1.72714436650834   33.49435682435190
N        10.90480844949651    3.99566298130502   37.45263116546746
C        15.71746295704514   -0.38229000470233   38.27908724000456
H        16.66584435485450   -0.05143785067251   37.84989607716825
H        15.27251242341933   -1.11993120200215   37.60870453361523
C        14.31640349791554   -0.55871151701123   35.19816815952434
H        15.37246769812612   -0.71149842876635   35.36956605697681
C        14.76199431897947    0.79265681592213   38.45043340154794
H        15.19905702667487    1.52909950867324   39.13714578741369
C        13.67904643953788    0.54955639860769   35.72891290147889
C        15.93899435676260    2.35838192346393   36.17590086637376
H        16.47836468198209    1.49773967127267   35.75923920082472
C        14.64452291483911   -1.51334172668561   40.24474897946499
H        14.82839210808261   -1.96645406327365   41.22083527285101
H        14.20803675049826   -2.27776783526709   39.59752495177207
C        16.81314095841110    3.08888350342599   37.19169189995172
H        17.15299452126817    2.39669486067277   37.96499279926792
H        16.22278277809207    3.87030796195536   37.67505342139147
C         8.96665715423828    3.09233412611781   33.81983398712434
H         8.52721450370718    2.89956581752036   32.85174425872146
C        16.72319965523405    3.93563915000902   34.37158430467115
H        17.32429018173818    3.15710839909507   33.89472385999719
H        16.39177342778376    4.62579539106981   33.59325248131967
C        13.43298318970961    0.31132408300494   39.03509419878856
H        12.75290011502443    1.17032067155298   39.14080088033720
H        12.97027416825625   -0.40059814911706   38.34463452209061
C        10.16169313230634    3.66588362484852   36.24071505118221
C        12.31918301721564    0.82864504045921   35.44699061624669
C        11.59188755215520   -0.16402673625218   34.76725921214419
H        10.52328077827215   -0.06625642549936   34.65341334338797
C        10.20338649894772    3.45386516630380   38.62494022506738
H         9.21329383630632    3.91326950525819   38.73577466868527
H        10.78703209726847    3.65354496177476   39.52501600707098
H        10.07594016621447    2.37571471108051   38.51070595326031
C        17.57257248754196    4.67392332179737   35.40151068857031
H        18.44286507459613    5.12034046901540   34.91630073948656
H        16.98383100464444    5.47899510688655   35.84570455403924
C        11.05631166852185    5.44755524558620   37.60200395419368
H        11.45951782758857    5.86511744044893   36.67919451426586
H        11.75087002839531    5.65638700390744   38.41627317178943
H        10.10206618941463    5.93513709122048   37.82794399111928
C        13.66274012691789   -0.35291236462387   40.38760328917903
H        12.71544426457742   -0.71467463665861   40.79225164654201
H        14.06738428995296    0.38327405855923   41.08542788471530
C        18.02138973908508    3.71521743724814   36.49956731981942
H        18.62666616241517    4.24805434020488   37.23519298461357
H        18.64157056017485    2.92818683485212   36.06179561444752
C        15.51353981183061    3.29882437543347   35.04514237423998
H        14.87393154789318    4.08267753708558   35.47205748920679
H        14.91783934365583    2.74513567138139   34.31261819734144
C         8.38931399261633    4.02473910119991   34.66514203019342
H         7.48722983761600    4.54235441770352   34.37760808016735
C        15.96121381623605   -1.03384119069055   39.63987790636775
H        16.64674851075744   -1.87649671881368   39.52740182828916
H        16.42716504229241   -0.30933322607638   40.31165066680416
Cl       13.75182274801372    3.99597159029349   38.69486348704800
C        12.23005151483854   -1.28429659098995   34.28047934097448
H        11.65148612517839   -2.03179843157101   33.75627902543828

