48
CSD_code = GOPWEN | q = 0 | S = 0 | Stoichiometry = C23H5BF15O3Re | MND = 8
Re        6.84618620049115    2.69137941581041    4.21382063752240
O         7.41966737942868    1.15200529881633    4.00570408852777
O         6.25250758272195    3.21447201263797    5.71341485575972
B         6.00323784509079    3.74109431870977    7.02319979341441
C         4.47801956761477    3.26139497763258    7.39395181541439
C         4.17466471561109    1.91567370948583    7.22773735993074
F         5.12437537368832    1.08655887469901    6.75400888334431
C         2.92617557580424    1.38747443534085    7.52789655043972
F         2.67670543533366    0.08789795820954    7.34999380307533
C         1.92638068133922    2.23138232564061    8.00112581965907
F         0.71808663088557    1.74683526573623    8.28186098747818
C         2.19467388871852    3.58659404106292    8.15896261172803
C         3.45972445700246    4.08325224363457    7.85176544393932
F         3.66404394280371    5.39633634486633    8.00199325434154
F         1.23824680604872    4.40765714614740    8.59099797656524
C         6.20863768702729    5.36517231832828    7.00767697951257
C         6.56850083462926    6.09702167290988    8.13417999867936
F         6.75786186110750    5.46892351183553    9.30151335274059
C         6.74761224379206    7.47619405596204    8.10796014150588
F         7.09614323982068    8.13143453528508    9.21509877039281
C         6.56733958038233    8.17267182835884    6.91711684570686
F         6.73417737482779    9.49309951851634    6.87587255175850
C         6.21521348906052    7.47223246691866    5.76888908015422
C         6.04731295508407    6.09417537684144    5.83648138740395
F         5.70755825865014    5.45170041872935    4.69261508907391
F         6.03895696005706    8.11726927604287    4.61430316318689
C         7.07922530566375    3.00097082799473    8.02791521887698
C         6.78164031083022    2.57542525433041    9.31711876971433
F         5.55325525477143    2.75336413769961    9.81647885883564
C         7.72674303414419    1.96009594980984   10.13308821198435
F         7.39741453561913    1.56856758297592   11.36278279732538
C         9.01761302666735    1.74668916569162    9.65936329424466
F         9.92851648048308    1.15654707891741   10.42942848911217
C         9.34540169203690    2.15236271919560    8.36944722764476
C         8.37472172493088    2.76571886290673    7.58683813872827
F         8.72686632016135    3.14289083896370    6.32813754655135
F        10.57397541236440    1.95406613137315    7.89304439121464
O         7.33290933345164    3.67105666387887    2.97495358346879
C         4.89900589295373    2.19365951146834    3.20066971076864
C         4.33005579186732    0.94475392897296    3.76462106336088
C         3.12371456969883    1.21642507130983    4.28699925041091
C         2.84865302289957    2.64262967038391    4.13772093527988
C         3.88286429320717    3.22937076090667    3.51382908721860
H         5.15815668339631    2.12537096537070    2.13979684205808
H         4.82533629663135   -0.00588866043353    3.70076503002481
H         2.43894553999694    0.51280019945945    4.72303369433624
H         1.93992407228776    3.11555084191337    4.46244643508306
H         3.98065083890564    4.25706914873886    3.22038018251417

