71
CSD_code = GOPWIR | q = 0 | S = 0 | Stoichiometry = C27H21BF15N3O3W | MND = 6
W        -5.25787490120565    0.55664796479696    0.04510402341106
O        -3.65115135932398    0.61936691993638    0.88119429015407
B        -2.39687528820891    1.33454022783594    0.73807866460387
C        -1.07665818110680    0.62383091796675    1.42682776131873
C        -1.07854316499567   -0.59114485351470    2.08943513194016
F        -2.21734515309857   -1.31984295162452    2.15461264036199
C         0.04038873610834   -1.14008489809115    2.70507305886736
F        -0.04558521222207   -2.33024579053953    3.32055610186223
C         1.24223985671301   -0.44948840917978    2.67386428414936
F         2.33252742378298   -0.95578478810316    3.25868395914750
C         1.29112577206414    0.78021786205158    2.02507150285780
C         0.14681604454101    1.29021147412810    1.42457474213581
F         0.24974114019437    2.47970344499320    0.81849343361525
F         2.43960962796780    1.46435039115551    1.99112820811113
C        -2.53198110998953    2.79546272557194    1.52258487769017
C        -2.29989206133694    4.06143697955426    0.99588630867615
F        -1.83573141581254    4.21060206617766   -0.25160411021452
C        -2.51639107196657    5.22948805178280    1.72248303252439
F        -2.28833776715506    6.42374031290924    1.16455654805342
C        -2.97132473918316    5.16075605317115    3.03334320479577
F        -3.19516860460280    6.27594204979005    3.73709847202406
C        -3.17667409552429    3.91320439103373    3.60657177585727
C        -2.94125193913171    2.77417175430962    2.84889177660773
F        -3.10351771086503    1.58298196490994    3.46722412172119
F        -3.59443850350502    3.81116781187517    4.87839217651018
C        -2.21716418637463    1.52681458882656   -0.89133039266411
C        -3.20234878269986    2.25778014913319   -1.55445605267453
F        -4.16128434562734    2.88763731516603   -0.81602804158705
C        -3.21822301276526    2.45015635243047   -2.93037458154804
F        -4.16750573311497    3.19048834234400   -3.50895655807882
C        -2.25519605949780    1.81947306532207   -3.71066443000951
C        -1.29299284005758    1.02835116581666   -3.09575112047807
C        -1.29098792247451    0.89538949998566   -1.70977824487462
F        -0.35353774042414    0.08699599778654   -1.17441401191205
F        -0.38115520168667    0.38489866367770   -3.84047122575188
F        -2.26409391293116    1.95589127054961   -5.04220290324053
O        -4.97389244606433    0.51820363873035   -1.63152321798211
O        -6.26275489666537    1.82263134032415    0.55882565966970
N        -7.36156859400127   -0.39262440954169   -0.57017209618324
C        -7.81788097122294    0.55528097073762   -1.60341096309163
C        -8.21677659899743   -0.27079894393819    0.61803409937494
C        -7.59476503369212   -1.01962637037120    1.80089200152634
N        -6.16385985117104   -0.67800008289914    1.92031852757154
C        -5.34059998249493   -1.87120350414979    2.16230841498067
C        -5.22670092871378   -2.72303539369278    0.88848175357766
N        -5.00070272886227   -1.85237400880850   -0.27953652152305
C        -5.89359784624609   -2.17995573307124   -1.40271518498701
C        -7.34004063805628   -1.76626535985867   -1.10525257350363
C        -3.60732124692712   -1.95136212275959   -0.74203786420630
C        -5.97906044383956    0.28869038576978    3.01345593620759
H        -7.16279089137783    0.47685693298280   -2.47252587932404
H        -8.85904427621249    0.35280098723048   -1.88714137582642
H        -7.71338415877179    1.57258097329315   -1.21268793781208
H        -9.23528610120514   -0.64061177288069    0.42374122847643
H        -8.25593803615742    0.79722990645337    0.86048079850551
H        -8.13480292215979   -0.75061452024270    2.71653711458258
H        -7.70785359656028   -2.09956137710135    1.67271003199401
H        -5.74716900705458   -2.47976622448892    2.98418746918143
H        -4.34501151580606   -1.53016157878796    2.45021023429340
H        -6.13421877817158   -3.31557744509852    0.74074036944280
H        -4.39965394966658   -3.43005799682493    1.01403809330927
H        -5.84619585174833   -3.25041489996366   -1.65405672171858
H        -5.54335511520006   -1.59229089995859   -2.25754202561813
H        -7.92292524029833   -1.83102781185144   -2.03126535545179
H        -7.79907854561280   -2.45640108116430   -0.39245683233671
H        -3.44865817615833   -1.21735267864359   -1.53560284318326
H        -3.39001618117150   -2.95831192209475   -1.12194208507207
H        -2.92890670725954   -1.71983745070906    0.07488971548096
H        -4.92072837053967    0.51549878105765    3.12124321082080
H        -6.35668378730900   -0.11257232954048    3.96319124049136
H        -6.50189316909502    1.21382391792501    2.76208515438081

