47
CSD_code = GOPYUF | q = 0 | S = 0 | Stoichiometry = C23H19CrO3P | MND = 9
Cr        0.56815660684606    7.79782049330245   11.49606042204679
P         5.15642210071202    6.14427728598574   11.10993810131363
O        -1.08683419190212    6.17982342849910    9.62772674487246
O        -2.01727794002632    9.27082715465096   11.54413391018227
O         0.74973637916791    9.33522384128184    8.95565452018833
C        -0.42890968558540    6.76943858888834   10.37545584085020
C        -1.00790727873287    8.70988708421766   11.57500097838397
C         0.72465835138710    8.75708637665254    9.95637625000034
C         2.49344935941948    6.59308584573507   11.84149763069966
C         1.43689430488590    6.03058903036322   12.58573777863002
C         0.73622533221254    6.78896205476735   13.53284778335899
C         1.04340491580023    8.14849548324042   13.69663449688600
C         2.06573444964679    8.73473543971669   12.94425677991347
C         2.75767441183693    7.96306105420533   11.99612243460793
C         3.31201798039751    5.75380955337701   10.90343066061770
C         2.92230942084256    6.03842901564524    9.44974722443436
C         5.78250297300751    4.90831011587302    9.90225271323474
C         6.42223533557347    5.37916999756223    8.76153416750787
C         6.89452979489971    4.49508383545931    7.80761759431884
C         6.73090344675703    3.13246605976589    7.98879687279555
C         6.09600154676350    2.65636591398219    9.12531737322438
C         5.62356622811423    3.53743658688943   10.07944208683963
C         5.55697187309918    5.23062267556672   12.64955946753573
C         4.69129739115079    5.12400264938874   13.73211047608148
C         5.09854630780430    4.49663412420882   14.89676079305186
C         6.38009979088345    3.98602124110208   15.00449657085472
C         7.26119742136299    4.11583696681539   13.94265049496885
C         6.85622559484621    4.74021171287627   12.77956550213280
H         1.24535877019900    4.96442441619156   12.50990876296859
H        -0.00146861628501    6.31647259646562   14.16964894967222
H         0.54551802490681    8.72109069063553   14.47069709669081
H         2.35800182881144    9.76159572942663   13.12453026881889
H         3.59637534615668    8.39968223329216   11.46275934633912
H         3.15135441786567    4.68854849617590   11.11716964140577
H         1.85889485817423    5.85243869268413    9.30273507269080
H         3.48642850679111    5.40119020962474    8.77100133865198
H         3.12261974205692    7.07770569897941    9.19381349794706
H         6.54711732135516    6.44489917729945    8.62723064672612
H         7.39128635875203    4.86875987813641    6.92428207702821
H         7.09951145450147    2.43963148258523    7.24692645078986
H         5.96972046228376    1.59280767235737    9.26790856398190
H         5.13888607386947    3.15883189228670   10.96917582651416
H         3.69193737779648    5.52897583427986   13.67441775720614
H         4.41005690662348    4.40975357312959   15.72541046219007
H         6.69382214073969    3.49555368762834   15.91395281297992
H         8.26724625280929    3.73084082345993   14.02369903827447
H         7.54660055143372    4.84458360533661   11.95300671956586

