83
CSD_code = GOQLON | q = 1 | S = 0 | Stoichiometry = C40H38N2P2Rh(1+) | MND = 6
Rh        1.53329405993767    3.55579474680023    4.15572949090348
P        -0.58725336632187    2.83744432217448    4.51245134153510
P         3.78993963167071    3.63463293892341    3.91007037955015
N         1.71283867758960    4.22691883867367    6.14857417840510
N         1.98381957620169    1.48251558778491    4.76593177174380
C         1.46650476675236    4.75569338169531    7.13766239781367
C         1.17807956343818    5.40843859703172    8.37164665709821
C         1.32142339238363    2.91682456575749    2.18257713075681
C         4.26083747667252    2.24692137169340    5.06972330015318
C         3.24470614036948    1.14671048924448    5.04851692197307
C         3.58795446704692   -0.16815944351730    5.34014835887787
C         2.59534536381352   -1.13420264025507    5.35418809732616
C         1.29233236285757   -0.76582820762333    5.06464829266000
C         1.01809691917865    0.56238353764729    4.75767656280315
C        -0.36417109518502    0.99384267498581    4.36778505002713
C         1.12232166602423    5.45772067830131    3.59295824485830
C         0.07399098239820    6.14535827482386    4.20203462159376
C        -0.19463601410113    7.46980100296094    3.89484195659762
C         0.58123643878389    8.14065770774556    2.96687597465374
C         1.62751357472500    7.47553816952219    2.35339317830922
C         1.89491250285915    6.15219679051966    2.66535908530688
C        -1.23854465290526    3.00365668296180    6.20516416008016
C        -2.24603117996801    3.92195795485371    6.48649417316401
C        -2.68495997430319    4.09585376132596    7.78707470015610
C        -2.11717966980778    3.36331222383353    8.81716897363908
C        -1.10439472344432    2.45681465594615    8.54482420973064
C        -0.66101902793718    2.28208082674902    7.24682863694678
C        -2.07344809640685    3.11389701610924    3.50653226085904
C        -3.21645847046797    2.35056386796294    3.73585917448789
C        -4.35077010681069    2.56414320678533    2.97631633626607
C        -4.35455079741696    3.54094553673460    1.99173132123144
C        -3.22301548594744    4.30770099030500    1.76931468149135
C        -2.08160889961935    4.09726574039822    2.52407248217251
C         4.87164318846633    4.95545771653478    4.53656961031229
C         4.32108824767163    6.12448922005598    5.04728415253553
C         5.14729575609201    7.12042657463396    5.53928935023472
C         6.52166298212013    6.95179311045651    5.52623041553657
C         7.07404318892506    5.78570812688366    5.01789646487119
C         6.25479127819246    4.78940777043199    4.52228377572007
C         4.61378792230016    3.15322499901537    2.36635328656970
C         5.14484529566612    4.13404840583899    1.53279256016187
C         5.72588089129860    3.78104827363306    0.32884042125018
C         5.77281978439888    2.45104557503470   -0.05673822827624
C         5.23448538530982    1.47240432891985    0.76316023582569
C         4.65127546450758    1.82011440194663    1.96769787777451
H         1.83963749484510    6.26559383140118    8.49675548988392
H         1.32186304237977    4.71628968864328    9.20095727050165
H         0.14244115866239    5.74863726081249    8.36609953496639
H         1.79082105570529    1.93425122520586    2.07195123806759
H         1.81156794721293    3.59073812154329    1.47877824408914
H         0.28175403653371    2.82009764896647    1.86042085774214
H         5.26423483974185    1.86736777798513    4.86141221816308
H         4.26815982714650    2.69675758884252    6.07090952048063
H         4.61272455528153   -0.42502091296706    5.55687075539649
H         2.83487626329186   -2.16059929823464    5.58446989417309
H         0.49866381436760   -1.49591728143427    5.06308993641994
H        -1.11884146005210    0.44933822951176    4.94189951253298
H        -0.51346638640702    0.75884546935906    3.30696786008709
H        -0.55900480451217    5.64506899127091    4.93071913831525
H        -1.01726833483780    7.97457711667412    4.38107375834313
H         0.37158731692141    9.17116325431264    2.72400486036336
H         2.24334553909346    7.98722996383654    1.62824878125593
H         2.72648935466343    5.66184261072336    2.17149396876999
H        -2.69531022511645    4.48772902169946    5.68177136400397
H        -3.47468996713755    4.80146656223101    7.99683419471358
H        -2.46482918701169    3.49584931439171    9.83033454471866
H        -0.66264048165513    1.88285657216960    9.34621552834015
H         0.13534232296367    1.57877490261425    7.03996938035771
H        -3.22037170481602    1.60046953431628    4.51501180311832
H        -5.23527808376307    1.97102058037590    3.15331284899039
H        -5.24328866058090    3.70516405948377    1.40195673451424
H        -3.22760605187760    5.07253779345698    1.00781824063594
H        -1.19584613580390    4.69505242232549    2.36047848483920
H         3.24732469961519    6.25378996506272    5.04151183294430
H         4.71768724366318    8.03226064964749    5.92640844224850
H         7.16525819899916    7.73021440006419    5.90650333156195
H         8.14575689295211    5.65697936989863    5.00388117312610
H         6.68600599530009    3.88734248037831    4.11001772088801
H         5.11299621196033    5.17134624776608    1.83775171698161
H         6.14246700479401    4.54455935968029   -0.31039896985075
H         6.22734790227009    2.17682327014253   -0.99619954088666
H         5.26819483215992    0.43605740681339    0.46180535994924
H         4.22636854576402    1.05248044697314    2.60105894271851

