49
CSD_code = GOQQAG | q = 0 | S = 0 | Stoichiometry = C16H16N10O6Zn | MND = 6
Zn       -0.17105135398538    2.10921833506381    3.17068546897827
O         8.17184951603953    3.59059657526336    0.74511373172141
O        -0.20174589365411    2.03250477276957    0.94642843187434
O        -0.28944228073854    4.22457384375850    2.69077586704840
O        -0.06725411090562   -0.08423254019543    3.18576431560944
N         3.78460852797074    2.60259122568374    2.33636363630033
N         3.95562523970646    1.69689593256870    3.31318624132695
N         1.77825512267220    2.13089353423402    3.07558419180976
N         1.95931900092500    3.72205975222392    1.30205841564558
N         2.81133450128673    4.35634040747994    0.50822470136324
C         2.74861229370024    1.44091201279693    3.72468051017895
H         2.53428991046664    0.74441723126072    4.50809854785777
C         2.46304089531776    2.86805591226598    2.18815710856348
C         4.09923272887964    4.14931143599668    0.59174342281649
C         4.72118530797970    3.23127710297621    1.53562321335625
C         6.05415179482716    3.03115776848517    1.60460514438601
H         6.47008885383090    2.33982896607471    2.32043596083117
C         6.95571190402721    3.74049072027582    0.71777698275203
C         6.31177153308679    4.66165113503728   -0.22815677769680
H         6.97958810544941    5.19199004346293   -0.89139676147611
C         4.98246963117009    4.85322109913201   -0.28741438599025
H         4.52856522770329    5.53567922792940   -0.99008727455890
H         0.53501516024646    2.63892698858461    0.73110877814065
H        -0.98891877657776    2.46134292418741    0.59749709690884
H         0.48338943884235    4.40041763095354    2.10696896117646
H        -0.00299676964015   -0.44341483955904    2.29601735354133
H        -0.37164973108858    4.95004243280263    3.31551028406213
H        -0.78126144569325   -0.54312675612516    3.63737576613391
O        -8.67410430760428    3.81542778151885    4.67745724328119
O        -0.12704493247971    2.36854741648398    5.22977840351717
N        -4.17823222219655    2.59122363547040    3.65438398035650
N        -4.27146181563853    1.79052459873418    2.58159289889855
N        -2.12400573295876    1.99837174643096    3.16985500069273
N        -2.46163653837906    3.43839840305545    5.05324165204213
N        -3.37031869292378    4.06718619356377    5.77614874645946
C        -3.03973290432794    1.46306086571947    2.32374212464627
H        -2.77759695879679    0.81815090026236    1.50921111041990
C        -2.87597284364881    2.72242202620087    4.01876482513529
C        -4.64327098747214    3.99545835397615    5.48092467424019
C        -5.17776030975974    3.22833381435800    4.36646867706985
C        -6.49606370301666    3.15254786835428    4.08334279938941
H        -6.84718078452916    2.56764748609086    3.24785419282552
C        -7.46813095264718    3.85473351295074    4.89702281257765
C        -6.91134662326410    4.62561371358274    6.01594063466157
H        -7.63235840110704    5.15012982482109    6.62611295962957
C        -5.59609626595433    4.69226366600957    6.28870354985246
H        -5.20736180487250    5.26414313158977    7.11778051570217
H        -0.97019473524374    2.87592646312164    5.42411107235914
H         0.58268718495461    2.77946572227009    5.72913319358024

