118
CSD_code = GOQSUC | q = 0 | S = 0 | Stoichiometry = C50H61CuN4O2 | MND = 2
C        12.11844576362995    1.19043767932436   15.77633788009827
C        12.95113677478814   -0.20913588066798   14.14340258486307
C        11.53596483115946   -0.17211780759552   14.06591699573745
C        10.64817543593923   -0.86337246668301   13.19243684985948
C        11.32144912464537   -1.70262638101447   12.12781196389322
H        10.61190728308975   -2.42078626521759   11.72474995314270
H        12.19700528870127   -2.20377386775122   12.52953916897729
H        11.65874998486616   -1.04907748995339   11.32475842706517
C        14.57260911487777    0.94073290998333   15.62787105342898
C        15.31257600118213   -0.04987086491603   16.27523909330640
C        16.62911929204590    0.21922033066050   16.61445362740578
H        17.21200105953780   -0.54519077646790   17.10996325381204
C        17.21918800282726    1.44116122861946   16.32093196009220
C        16.46417138111862    2.40607309279131   15.67256931292699
H        16.91541143891353    3.35474382746698   15.41953011175679
C        15.14571236013456    2.17316987100613   15.31529615466645
C        14.69147283626203   -1.37843045156957   16.57189849210452
H        15.34931925964332   -1.98764905062959   17.18644101916118
H        14.50091123776749   -1.90097571996429   15.63480019438090
H        13.73816667447979   -1.25457835928054   17.08593057626349
C        18.65462998605298    1.69312402662431   16.67685264725834
H        18.89218159376953    2.75235405926075   16.61194328111274
H        19.30797371500959    1.15551773066418   15.98972363159831
H        18.87324160249382    1.34056420813982   17.68392277916813
C        14.35439570377623    3.21103286241670   14.57933026161910
H        13.94190879704132    2.78838664367763   13.66371562150978
H        14.97989544306782    4.06317420143131   14.32564260484552
H        13.52336653460863    3.55638467515340   15.19601189897773
C         9.73542492663021    0.97432093291540   15.32136645115875
C         8.99981768958580    0.16659459144340   16.18547195686040
C         7.66300570195088    0.46364209144073   16.39287976736772
H         7.07975669268503   -0.17297549897819   17.04248381284835
C         7.05315463689303    1.53590642838642   15.76088996989754
C         7.81007051921008    2.32719965323912   14.90865690758900
H         7.34083953567841    3.15530890723091   14.39459004081024
C         9.15087840803717    2.06441780899517   14.67936097416618
C         9.63388258889482   -1.03191362724993   16.81861879717356
H         9.76867976841099   -1.80521851207336   16.06224625420223
H         9.00664012709038   -1.42709542495255   17.61364269443360
H        10.61312337187299   -0.78641233162676   17.22592599612027
C         5.59312361491479    1.81600404743735   15.96148325386382
H         5.39256171686022    2.88544005946481   15.94200075627592
H         5.24219850322881    1.40483899601453   16.90486998286294
H         5.01705143053585    1.35570788866568   15.15945219744711
C         9.95880313042303    2.90145387176261   13.73556542768294
H        10.86895273188196    3.25929266363001   14.21729258126145
H         9.38476082804513    3.75610686379180   13.38695995998144
H        10.25028968894846    2.30196821742734   12.87360676930506
C        11.99021287690991    3.50696531358973   18.91824071349922
C        12.54139691380081    4.93832736585578   20.54547520284222
H        13.14406006426760    5.66300657682132   21.05325472495898
C        11.35986795040604    4.36915340079960   20.88411886782754
H        10.73088591442608    4.50524473591793   21.73930578997505
C        14.09348901132998    4.74732415875374   18.63235083901698
C        15.29781388105760    4.14111520196963   18.99625396992630
C        16.44125999724977    4.50254930789344   18.29876155421878
H        17.38480680433347    4.04415594058401   18.54251876458927
C        16.38425729045776    5.44841467182157   17.29338687754552
H        17.28654005919105    5.73069560572414   16.77127628029693
C        15.18305131081343    6.03904819041342   16.95098785320969
H        15.15995385095534    6.77541028936064   16.16423608469179
C        14.01031681891345    5.69260508375046   17.60692316368075
C        15.33534034025770    3.09775286487374   20.08891578135000
H        14.51148158642095    3.28734153077117   20.78666763181813
C        15.12847599177500    1.71403789871383   19.46683592983804
H        14.18872927403629    1.67270511518798   18.91852314267716
H        15.11521091573152    0.95067565064737   20.24138068616822
H        15.92909066828778    1.49099145814071   18.76691810495049
C        16.63241496722631    3.12866758267846   20.89697671580029
H        17.46796487401503    2.75572124268885   20.31141870319126
H        16.53150513958759    2.49358934843412   21.77435967634877
H        16.85912461199525    4.14000813895413   21.22792842036534
C        12.69110987973944    6.35036830491491   17.26945173295674
H        11.88200003944515    5.65981509047820   17.52968166218805
C        12.54616965097682    6.67749931140691   15.78389550890093
H        13.19106525777946    7.50287822662199   15.49394371917254
H        11.51904593253663    6.96706106087768   15.57341323960932
H        12.78910373488324    5.81202668670162   15.17306215222643
C        12.52956778874325    7.62375203521975   18.10742697136940
H        12.55158521694247    7.39831242644223   19.17150121436683
H        11.58164548018569    8.10508962064522   17.87793319372694
H        13.33417117604116    8.32246721942654   17.88886954413594
C         9.86265434999716    2.70190402283218   19.82535922479481
C         9.90689501344972    1.39604742840993   20.31393714707966
C         8.75331929266567    0.62923886788691   20.21768079248009
H         8.75673098572410   -0.38690220484310   20.57953928397367
C         7.60255943253966    1.15114320768820   19.66118331861792
H         6.71444576859826    0.54106134118254   19.59620149166092
C         7.57721724353134    2.45105804815562   19.19299352230745
H         6.67253644412011    2.84052661058266   18.75718322297467
C         8.70471225782255    3.25462152211755   19.27266121472513
C        11.16205145333368    0.82216682769491   20.92949030041941
H        11.92110468524207    1.60793096513761   21.00084683885507
C        11.72709911982826   -0.28893896844983   20.04298790839891
H        11.01395864743020   -1.10226361667732   19.93906529519662
H        12.64392253537553   -0.68442472255195   20.47407112344231
H        11.95277967770609    0.10318525574436   19.05246588703494
C        10.89310850017257    0.30846235922621   22.34577032637725
H        10.45214060504039    1.09099847945196   22.96010674351982
H        11.82500520154894   -0.00937974994227   22.80779788376242
H        10.21489436903644   -0.54001856344035   22.33290010829960
C         8.69749966119058    4.67104840734638   18.74564856426295
H         9.52201412393546    5.22677422754066   19.20659686452892
C         8.92205417398198    4.64655324573891   17.23178633503895
H         9.85216223456463    4.13459980646659   16.98860306054025
H         8.96530920993796    5.66028898702911   16.83956792938112
H         8.11506028943533    4.11140414879781   16.73921438308691
C         7.40464278052243    5.41410660672422   19.08396720297297
H         6.56616658626055    5.02428987442479   18.51410639372445
H         7.51297141052930    6.46863810547431   18.83982197607881
H         7.17582104048206    5.32734265995702   20.14402257492157
N        13.24802561647323    0.65780783163879   15.22311774672512
N        11.10058366662131    0.67903647027984   15.07788471286005
N        12.90923047176573    4.39974194081729   19.34225136742876
N        11.04093119156732    3.49896878268548   19.87760493794682
O         9.42227866312112   -0.79012849410505   13.27404123769465
Cu       12.03291782496198    2.37933784176686   17.32328135626680
O        13.81447806751296   -0.80378380266278   13.50716135478444

