17
CSD_code = GOQYUG | q = 0 | S = 0 | Stoichiometry = C4H6NiO2S4 | MND = 4
Ni        2.07743719546501    1.63266183967801    4.15917568962711
S         2.97366188374897    1.73541378138169    6.20135315346171
S         0.22922318201200    1.60396173677457    5.39979858515875
S         3.92483702444425    1.68400991375128    2.91751229728381
S         1.17999374768399    1.56306440345983    2.11568008747534
O         1.03541976071289    1.86597650719974    7.92627009363258
O         3.11096430180913    1.65204859820009    0.38009006683144
C         1.35031792931961    1.74960739525189    6.65738691513284
C        -0.33929251000069    1.87272947889144    8.27636296967683
C         2.80039996689210    1.63625575115369    1.65526002591848
C         4.48345299779156    1.71327317581025    0.02663048764099
H        -0.37077194052902    1.97414059797549    9.35825998979418
H        -0.85161227957161    2.71134685838166    7.79898535650888
H        -0.81775248303618    0.94105959422155    7.96553080122288
H         5.01755140172753    0.84298585364724    0.41480620289465
H         4.51123151003785    1.72288584990635   -1.06003454502244
H         4.94213831149246    2.61957866431509    0.42863182276217

