57
CSD_code = GOQYAM | q = 0 | S = 0 | Stoichiometry = C18H32N2NiS4 | MND = 4
Ni       -0.53663214520669    0.00074443482599    5.52978912765181
S        -1.05827572523928    1.99103663439319    4.71817167133581
S         1.48410313580507    0.77491148531013    5.06660735191796
N         1.13920421710008    2.95999728098292    3.54062982896312
C         0.60141413625603    2.03792762234273    4.33333508502474
C         0.27895654022172    3.95093234988956    2.92127440884925
C        -0.02622233284893    5.12041380655212    3.85332239455456
C         2.54880102728998    2.88622024301352    3.18372633414610
C         2.73138288001697    2.28044210878532    1.78872070499483
C         4.21780141890778    2.10735790549526    1.49271764505562
C         4.94319571400509    3.44499927830827    1.60043436910930
C         4.74396187237091    4.04935546321608    2.98708944140284
C         3.25742061910700    4.23572531272614    3.28398862268132
H         0.76468876400644    4.30595892336519    2.01244413463792
H        -0.66095994698005    3.46146608908731    2.64644693887676
H         0.88160199112529    5.65141141209898    4.12524185238100
H        -0.70173888298755    5.81205799050763    3.35764411667574
H        -0.50573124149408    4.75906834173219    4.75842457055079
H         3.00931467303088    2.20783449153322    3.91057035620517
H         2.22465298435677    1.31454339516052    1.74797551329959
H         2.28242879638310    2.93148423825527    1.03532249571265
H         4.34671224121495    1.69086370814097    0.49224265261578
H         4.64642466581758    1.40239955610969    2.20770440909289
H         6.00811755741099    3.30540050840121    1.40747513096052
H         4.55416719847800    4.13182765842395    0.84493961678032
H         5.18273150421583    3.38820632285904    3.73702953672441
H         5.25242943868406    5.01316301616932    3.05079094115291
H         2.83791553270439    4.94319801621825    2.56669689812722
H         3.12769037542462    4.64311810872355    4.28816826752773
S        -0.01444902668478   -1.99122652194380    6.33753272883544
S        -2.55718071689754   -0.77594747180490    5.98952591297043
N        -2.21146158723643   -2.95974654924282    7.51680478087892
C        -1.67365796874853   -2.03722958024802    6.72460625906225
C        -1.35134629411460   -3.95092478960872    8.13594497503947
C        -1.04605784703049   -5.12025676524239    7.20375131328031
C        -3.62116005327780   -2.88617788625291    7.87340290588837
C        -3.80384649713220   -2.28054101046795    9.26844844806938
C        -5.29028535623522   -2.10749695893679    9.56441006752595
C        -6.01567572440305   -3.44513582533416    9.45663772689284
C        -5.81643847394493   -4.04941412968717    8.06994622135016
C        -4.32987614247991   -4.23565215514672    7.77301590266451
H        -1.83729069307873   -4.30613571831229    9.04456910094671
H        -0.41151729712070   -3.46152831242717    8.41113824253915
H        -1.95388006069639   -5.65116028164602    6.93163466330998
H        -0.37068418941897   -5.81202782844314    7.69943482526809
H        -0.56638548730576   -4.75883490078592    6.29877051050044
H        -4.08158500256519   -2.20762516462901    7.14663591652900
H        -3.29714045686314   -1.31463345436927    9.30928089335561
H        -3.35491889653666   -2.93162568844029   10.02182101884346
H        -5.41921222241390   -1.69106255148392   10.56490786591854
H        -5.71892295855348   -1.40249483433754    8.84947240011070
H        -7.08060143969061   -3.30556209406939    9.64960680951071
H        -5.62663900280924   -4.13198604068962   10.21210875344320
H        -6.25523555970642   -3.38822898982158    7.32005192443208
H        -6.32490124782239   -5.01322683243207    8.00621119714877
H        -3.91038646161410   -4.94316496167057    8.49027621060340
H        -4.20012034479612   -4.64301840515381    6.76882800807400

