43
CSD_code = GOQYEQ | q = 0 | S = 0 | Stoichiometry = C14H22NiO2S4 | MND = 4
Ni        1.43691020768628    4.77063789889521    1.74601098400039
S         0.76521897693827    4.20330877127858    3.78488034487853
S         0.81248605610273    6.76287656144555    2.51938107821373
S         2.21126287174190    5.34943672216084   -0.25677837865214
S         2.11239440400479    2.78529513673234    0.99607977469055
O         0.31245158766287    6.51624155027384    5.04885318464207
O         3.24498318354486    3.11750915326581   -1.30757816351806
C         0.60025716109277    5.88261526223775    3.94519840328015
C         0.16754493059261    5.78187100116518    6.27603003681463
C         1.53616468720877    5.56396883449822    6.91890578497244
C         1.37186500022276    4.85833131771902    8.26116276070167
C         0.46568300009994    5.66722087477180    9.18407322250467
C        -0.89599614317134    5.88872543778040    8.53268024709360
C        -0.73990007483146    6.59686692076792    7.18989343810619
C         2.61219881038839    3.70495882061494   -0.32925162610059
C         3.71323696837886    3.89179250762100   -2.42442670209463
C         3.81536451097012    2.94894304850330   -3.61776622184944
C         4.35809911162220    3.69930320632865   -4.83054837164977
C         5.71649029273133    4.31738412464089   -4.51387568083682
C         5.60840304537706    5.25616125485492   -3.31626463453776
C         5.07197571418967    4.50972132443529   -2.09909736604805
H        -0.29238388193618    4.81134915281958    6.04671254215144
H         2.16301030863343    4.96857900205643    6.25270273724115
H         2.01289719166222    6.53609317263398    7.06132069962513
H         0.93789225886753    3.86984356495260    8.09743643332575
H         2.35147480802226    4.72303943561209    8.72160647367699
H         0.34108313690772    5.14299009950902   10.13291486746377
H         0.92943014083419    6.63353159956500    9.39298234042874
H        -1.53165084498158    6.48733345043120    9.18660142075387
H        -1.38546723879166    4.92464046507910    8.37862151051665
H        -0.29329500034016    7.58213757208049    7.33334954465262
H        -1.71125301626007    6.73229805277508    6.71200667203011
H         2.98327145426115    4.68721174842838   -2.62565855677595
H         2.83202092441110    2.52931551847232   -3.83485484366613
H         4.48283149023437    2.12704327176588   -3.35372358931936
H         3.65710433452496    4.48815923946827   -5.11164485352467
H         4.44566573134077    3.01186983408483   -5.67312348725819
H         6.43292391112113    3.52425386878812   -4.29001117236722
H         6.08431464272899    4.86634100520214   -5.38204588463799
H         4.93516562371638    6.08106862500025   -3.55815714435421
H         6.58620579419860    5.67855210967097   -3.08057522729153
H         4.97074450965982    5.19071402951769   -1.25217576103459
H         5.75941941864019    3.70976545209772   -1.81614683625163

