40
CSD_code = GORFUQ | q = 0 | S = 0 | Stoichiometry = C15H13CdN7O4 | MND = 7
Cd       -1.80749040272328    8.32886052667661    3.32625642923094
N         0.21941340142180    8.42103437491538    2.16341139271018
N        -0.78849054795519    6.14083583106259    3.09999684854833
N        -1.06111541339349   10.50579840574960    3.20836844097885
C         0.45488295269764    9.60417625311505    1.60054924201785
O        -2.95231413464782    7.23218231178377    5.04157309576682
C        -0.12116350776366   10.77057552301305    2.29530966276349
C         0.62616764818620    7.29929297190261    1.56697362034505
N        -2.22160186628782    9.09060959270744    0.70473587883876
C        -1.25513698257565    5.04541458646096    3.67664706460701
H        -2.06888686282712    5.19290204002419    4.37461965487837
C         0.20923031888774    6.04264488215747    2.21610526635154
N        -2.64719467055679    8.30025375744273    1.45154381535609
C         1.61772439171373    8.55712026327905   -0.20673382496480
H         2.15614756883137    8.60748819072334   -1.14090012807218
O        -0.44260702294122    8.32711519999694    5.45886283648730
H         0.28016372458898    7.69483006154862    5.42812349658657
H        -1.20713628754358    7.83797585187033    5.80064632780232
C         1.33859569471247    7.32720444065359    0.37186132661928
H         1.64150249347898    6.41801510341043   -0.12079408605140
C         1.17008885505626    9.71145861946654    0.40399643165453
H         1.32840588271359   10.66800406582803   -0.06317096930215
C        -1.33583743703598   12.83534462082889    3.60807601307025
H        -1.84770320505697   13.62022039220307    4.14134917001335
C        -0.74494439499546    3.78109339720968    3.41788644038402
H        -1.15966600957441    2.91364352975069    3.90549477580659
C        -1.65547858544144   11.50526412283849    3.83788845541201
H        -2.42572695659859   11.22545025605736    4.54416186203528
C        -0.34854601630572   13.12336269815951    2.67989610898288
H        -0.06477867654257   14.14478853468705    2.47369710031194
C         0.79599253911042    4.81202735176687    1.91752806786488
H         1.62530764252729    4.74762900926717    1.23199344132458
C         0.26889038116387   12.07975114111938    2.01397175343902
H         1.04346497266245   12.28315798500498    1.29313220704039
C         0.31014687316249    3.66843735557022    2.52678707495416
H         0.74830537718562    2.70598811386639    2.30766904605129
N        -1.77663897970797    9.83115564963548   -0.03734937317756
O        -4.79505148808225    8.02595580890827    5.75648925510176
O        -3.60648197875263    9.15347408000325    4.39225496925442
N        -3.81653929077435    8.13756309934589    5.06839180899308

