72
CSD_code = GORKIH | q = 0 | S = 0 | Stoichiometry = C32H36O2PRh | MND = 7
Rh       -1.45320047128360   13.52705676320566   10.79755100240860
P        -3.51771660878771   14.06709665895973   11.69188796142827
O        -1.49971811115118   11.58237546449862   11.65197991964387
O        -2.51437603436198   12.63784691563651    9.06018904042015
C        -1.97504042156053   10.54280635167586   11.13074820230462
C        -2.62365480179112   10.41381660149156    9.89918877325037
C        -2.84003167766200   11.43113136857814    8.96232125578843
C        -1.83461318838794    9.27239178647372   11.95243034707878
C        -3.54775575793577   11.01885024822235    7.68129159770627
C        -0.41928412894501   14.48109930667146   12.23782582268690
C        -0.14337233735671   15.62944379089888   11.60041849915173
C        -0.75342000785786   15.51275185818318   10.22445861786274
C        -0.19538889597364   14.53488727358588    9.36214302855037
C         0.49734866058479   13.41413082311498    9.87064508739046
C         0.90835803692159   12.31553727156518    8.92261683053727
C        -4.70140948300774   14.71172434972440   10.44576187377542
C        -3.70198192585594   15.34519551482260   12.99897966690601
C        -4.51829764218470   12.69296140745607   12.39345031135008
C        -0.78464623939755   13.17663820835650   14.30431693110669
C        -0.32015710375056   12.62640969682434   15.48210380470459
C         1.00036625993284   12.80556283058949   15.86236280941887
C         1.85449941043417   13.53487460166905   15.05005568085135
C         1.39399298969131   14.09190199091107   13.87397752988206
C         0.05853486783407   13.93270560923987   13.48709739280739
C         0.67429939853911   17.18133439961074   13.36596076452926
C         1.39707885213757   18.29478987727259   13.74591894176124
C         2.06464151700389   19.05364615683877   12.79739519768542
C         2.00060226577027   18.69202429223551   11.46155437062293
C         1.27782611067173   17.58034205111579   11.07537865040289
C         0.60957845461655   16.80334362676994   12.02344334894623
C        -1.99250071890337   17.64237946400303   10.57506064245008
C        -2.84266177795795   18.64308856289047   10.14644398007016
C        -3.37435322963322   18.61291013879809    8.86842853077802
C        -3.05013524337380   17.55995748949772    8.02862591950301
C        -2.20072484235481   16.55793261243479    8.45436495620148
C        -1.64064298346037   16.57800609813444    9.73683201515106
H        -2.97090732051569    9.42637621980425    9.63322267054147
H        -1.27022051094183    8.52826705682000   11.39531118151379
H        -1.31563883776316    9.49889969355861   12.88014946926678
H        -2.81640137252996    8.86046713388792   12.17573045491636
H        -2.96340302516250   10.26382094112195    7.16014679268524
H        -4.52291361278602   10.59526344733976    7.91166492059060
H        -3.67384458388247   11.88440214508800    7.03554711413436
H        -0.47279403618453   14.52845422484473    8.31240494377755
H         1.21299531065143   13.56116749840015   10.68172136674687
H         0.16213589144759   12.16691374963116    8.14392956850873
H         1.86162049732474   12.56234991703116    8.44847666653651
H         1.03666181035678   11.37910158218668    9.46282615983022
H        -5.69356340761714   14.83081913908385   10.87935902820222
H        -4.34477057267034   15.67119170812979   10.07656488209799
H        -4.74338230842311   14.01540099789985    9.61094497263067
H        -4.75148131134215   15.47300862285598   13.25993764892760
H        -3.13639617396724   15.06044490012286   13.88281782853670
H        -3.30570852048853   16.28539953834740   12.62161229014218
H        -3.98494388764334   12.23467371606177   13.22349181815319
H        -5.48724150719192   13.05607840104358   12.73466572702371
H        -4.66004318594483   11.93845362486434   11.62110767828184
H        -1.80692012400822   13.02148683809595   13.98934932105543
H        -0.98618666283869   12.04791098022830   16.10722513957783
H         1.36501201851444   12.37180918671806   16.78218396849837
H         2.88844824375979   13.66678376668313   15.33603311950671
H         2.06436064514266   14.65672036162855   13.24201723115344
H         0.14501292620000   16.59728238779379   14.10463364916532
H         1.43777572719653   18.57680051109405   14.78842902298430
H         2.62874003545100   19.92443379785929   13.09780510034749
H         2.51681348771934   19.28165270507729   10.71732963748670
H         1.23000492623984   17.29841406937303   10.03306526260596
H        -1.59181044911811   17.68898045428829   11.57588443661576
H        -3.09203417058495   19.45342818530683   10.81665507660191
H        -4.03766805090230   19.39603280048296    8.53238563554506
H        -3.46743647529919   17.51769337697360    7.03253503789974
H        -1.99411460337320   15.73936485830004    7.78302587278918

