37
CSD_code = GORLAA | q = 0 | S = 0 | Stoichiometry = C11H19Cl2NO3Ti | MND = 6
Ti        2.13034485928274    3.93136473724657    3.49151059991180
Cl        1.44187817650274    5.35530706967276    1.94531663026799
Cl        2.43605804872243    2.21249255891084    2.13240826499744
O         3.85656029112787    4.44689301353165    3.41038804658471
C         4.98354361802334    3.90971964991110    3.71649178680744
C         5.09839466564231    2.87632972514761    4.61736721356834
H         6.07590385020646    2.46422248369088    4.80963613618364
C         3.98523455756874    2.26511882307593    5.25063769679973
N         2.78278209826017    2.73713897994910    5.09782204017827
C         1.65112363054281    2.03449487668071    5.65839016691125
H         1.75710727065958    1.86936661489189    6.73961557361019
H         1.54183323210673    1.06155952438531    5.15545377832499
C         0.41078781630386    2.90002278397354    5.35726466159468
H        -0.50201592547169    2.28100472737299    5.35822205751354
H         0.30873378100020    3.67555519076121    6.14183910367856
O         0.58719992585883    3.49959347404231    4.13426692156132
C         6.19934524350906    4.46243885100033    3.01736519171995
H         6.16262484611904    4.15316425574686    1.97256996551307
H         7.11997472969842    4.10322922776025    3.46540483932778
H         6.17206354187186    5.55093883197261    3.03883925998985
C         4.24790389918384    1.04338902898338    6.08795609067336
H         3.87522360669858    1.18336939380935    7.10232529041245
H         5.30917338081495    0.82007291999503    6.12965834367364
H         3.72547515983085    0.19050012740651    5.65501942186258
O         1.99270770100497    5.61635453388621    4.96550372550843
C         3.06990929896247    6.49206323677716    5.27781916075056
H         3.45098091279354    6.94547687013099    4.35100448705380
H         3.85861177194797    5.89564677819015    5.74520328716292
C         2.48386229123307    7.56954932085537    6.21202701240785
H         2.81780380068718    8.56081800226936    5.91272381345025
H         2.78893092309346    7.40439193913885    7.24380916562342
C         0.96361040220437    7.40832779857025    6.04892041252552
H         0.52883980157242    6.94795827703559    6.93595410009712
H         0.45976810134315    8.35403721155022    5.86694557228914
C         0.85057094352529    6.46494735762727    4.84916409773863
H        -0.03969175432549    5.83272985598540    4.84770132064203
H         0.90124150188871    7.01961194805853    3.90195476307433

