56
CSD_code = GORREM | q = 0 | S = 0 | Stoichiometry = C30H22AuN2P | MND = 2
Au        8.71295710010841    9.24461897592778   16.14119613013211
C         7.24980605146597    7.99351812068380   15.83123311129837
C         6.32503518615533    7.23186549873630   15.65749149101133
C         5.24851925160940    6.34076554838538   15.44588334104253
C         4.02184279680395    6.52749131587207   16.08611428594036
H         3.86458589042651    7.35356959533349   16.76099775571441
C         5.37130728755066    5.24392629922530   14.58602728585594
H         6.30047095370129    5.05675950985488   14.06823017671516
C         4.27923278384166    4.41314660048075   14.41708138357893
H         4.33361032747418    3.55302058785398   13.75961793023056
N         3.11623374159188    4.58773499973466   15.01846385876161
C         2.98838636762360    5.63087567999139   15.84318500197944
C         1.68188407531695    5.79907948813779   16.49508308469981
N         1.54708074076015    6.81687907729360   17.34353919979356
C         0.63412789314962    4.91681265802897   16.22096895396957
H         0.80123072760603    4.11071220515090   15.52538845926901
C        -0.58038949818543    5.10878226665468   16.85079622499162
H        -1.41143978127513    4.44415472304051   16.65892239250426
C        -0.71599040311116    6.17049035344691   17.73382078429193
H        -1.64676962946295    6.35749020952448   18.24748066701461
C         0.38388958690814    6.98998060441417   17.93951524363292
H         0.33238300483711    7.83235910169340   18.61902087041521
P        10.40728511192488   10.68888763934744   16.52721999646415
C        11.81720089344711   10.55874406729690   15.38797792899427
C        12.21445635289006    9.26741307767435   15.05118407072817
H        11.67090414424365    8.42366203514553   15.45883679517402
C        13.28623322718803    9.07096919900005   14.20141620637944
H        13.59312102106336    8.06862652156374   13.94228862288152
C        13.96021457048468   10.16298009662084   13.67755257273845
H        14.79510762280556   10.01169425405748   13.00965747592948
C        13.56155654969761   11.44896886184162   14.00424624731398
H        14.08635250672279   12.29870683279525   13.59247352698081
C        12.49197079597092   11.65294007237111   14.85791245214752
H        12.18046882643878   12.65750300967678   15.11029189968995
C        11.20838780561449   10.54410130296066   18.15126234783284
C        12.51025052526232   10.97842808033218   18.38314063276356
H        13.08691443833939   11.41068703444722   17.57666029093640
C        13.05842402436094   10.85288131275060   19.64596925633875
H        14.06843408348879   11.19005081855636   19.82779770155927
C        12.31687673866465   10.29596893200778   20.67670050669156
H        12.75163240727130   10.19950389645272   21.66043759708084
C        11.02261060142728    9.85904498437577   20.44665786817361
H        10.44668147896172    9.42107225135800   21.24820355678813
C        10.46858712256424    9.97919953187559   19.18504139449622
H         9.46109137213165    9.63307477266676   18.98934829348528
C         9.95640307137633   12.44378449530103   16.42659876138141
C        10.11051488655572   13.34665409799153   17.47130775143932
H        10.56043783040110   13.02928097230942   18.40187406136213
C         9.68628730629380   14.65477764161195   17.31242510865518
H         9.80970753918187   15.35832338241240   18.12267673580408
C         9.10461763195060   15.06202855210941   16.12351092565669
H         8.77613180376452   16.08396920736383   16.00673720017853
C         8.93530063584615   14.15823846835228   15.08518476901269
H         8.47307186602600   14.47346293832747   14.16153430177585
C         9.35192394292874   12.85073864155443   15.23800395049724
H         9.21654680979613   12.13059959805047   14.43991155979560

