70
CSD_code = GORYIV | q = 0 | S = 0 | Stoichiometry = C28H34Br2MnN3O2 | MND = 5
Br        1.47360918777672   -6.08757752118964    4.82269343963981
Br        1.58423503193792   -5.14340641053715    9.58013958023777
Mn       -2.43284425277653   -6.47764326692834    7.44426340758915
O        -1.21208146597631   -6.29999164052819    6.02732056706748
O        -1.10523405460989   -5.53315521580911    8.45135385694921
N        -2.44238316081628   -7.87260800383290    8.08393796233598
N        -3.85660841898548   -6.73183983409353    6.11059977321862
C        -5.14953218028807   -6.73887546791275    6.79055484636873
C        -6.41663647918261   -6.75113247404127    5.93554862838474
C        -7.63164966014386   -6.83735066234935    6.85850973574755
N        -3.84334495639570   -5.46892430757970    8.39009062495598
C        -5.15741746823134   -5.52307368028648    7.73912122434943
C        -6.36213448522692   -5.64030569437562    8.67832643913938
C        -7.64877008733228   -5.68458094722464    7.85564312517297
C        -1.30023799933904   -6.61546673530585    4.79121209196516
C        -0.14602315119238   -6.58863728954703    3.96911779898279
C        -0.16699474354456   -6.90844364248461    2.63674797851365
C        -1.36372844692405   -7.26588658676976    1.99744412709811
C        -2.51376379524707   -7.26048929756901    2.75576043264704
C        -2.51992950865290   -6.94574870986580    4.12563995141631
C        -3.75070136108455   -6.92068862577045    4.83897402461889
C        -1.41848962374835   -7.65477061762211    0.52770532357927
C        -2.38521543676733   -6.71682947191464   -0.20882202600297
C        -0.05179154055342   -7.56376732541610   -0.15516207693868
C        -1.91416387853766   -9.10376048464292    0.42088847018384
C        -1.22930359921188   -4.92893483037412    9.56572028462588
C        -0.07057798120196   -4.58712047366815   10.31629336597313
C        -0.12410720748970   -3.91331420366740   11.50233791133853
C        -1.35230173032443   -3.49002733423331   12.04857815787933
C        -2.49125508496475   -3.76981772910903   11.33696966180057
C        -2.47041724082567   -4.48403205739760   10.11870963315459
C        -3.68619664961262   -4.70552608622127    9.42639563159920
C        -1.34560327824090   -2.75345609044247   13.37789462256357
C        -0.53404881590026   -1.45909002372086   13.22948953773998
C        -2.75584265401696   -2.38710721879051   13.84791106990035
C        -0.70396567780541   -3.65287330459071   14.44336725813735
H         0.76319743326073   -6.87855128077780    2.09424445382785
H        -3.46165534374847   -7.51937384687966    2.30638374201269
H        -4.64505009482993   -7.06745342797098    4.23295445183839
H        -5.13942957793265   -7.64394833258586    7.41950950982761
H        -5.26998163922219   -4.60742857742675    7.13250852006145
H        -4.54350115300617   -4.15116618632841    9.81277181202594
H        -3.45842504728482   -3.46357857603052   11.70345016778745
H         0.80123708836758   -3.70788717514793   12.01736941379450
H        -2.41196731269330   -6.96520431736994   -1.26736238688303
H        -2.05961862365833   -5.68394251424142   -0.10546638618649
H        -3.39542549443897   -6.79803452923107    0.18281272733027
H        -0.15195746714771   -7.84559670174945   -1.20126254245348
H         0.66308187642697   -8.24077095549121    0.30576798320625
H         0.33894165525730   -6.54968768854971   -0.11765556288164
H        -1.94533357287008   -9.41302274211782   -0.62151399308284
H        -2.91086315847774   -9.21337583838952    0.83950084140303
H        -1.24422409995462   -9.77037082166899    0.95928108634914
H        -6.41798404482106   -7.61846383837026    5.27342266652428
H        -6.47407416432196   -5.84433551666995    5.32707158023941
H        -7.60033896834532   -7.78428302659810    7.40031263804948
H        -8.54485442700108   -6.82173611120243    6.26140130024573
H        -7.76478234779149   -4.74021006251959    7.31768042869983
H        -8.50261799069397   -5.79099000743367    8.52618544745454
H        -6.41555569717039   -4.79114220439197    9.36063318486314
H        -6.25560056369909   -6.54942891332069    9.27326163445649
H        -0.52682835262677   -0.91334210310975   14.17036513981954
H        -0.97540908279086   -0.82284269647616   12.46501044247575
H         0.49473765629899   -1.66527491676151   12.94864804434538
H        -2.69546132941589   -1.87246645813986   14.80433811917911
H        -3.36559637160298   -3.27742733156719   13.98341787590032
H        -3.24492485825432   -1.72129005863505   13.14047264857191
H        -0.72034389648729   -3.15517859260904   15.41046563932900
H         0.32853276147315   -3.88504477982199   14.19962990797318
H        -1.25327193535299   -4.58819660457120   14.52641302196998

