94
CSD_code = GORYER | q = 0 | S = 0 | Stoichiometry = C36H52MnN3O2 | MND = 5
Mn       -6.58081079952353   -5.45454076579026   -8.16817854983810
O        -6.16667993719607   -4.03833719691611   -9.40793049518248
N        -5.36830785921025   -6.38259973761243   -8.33357788597352
O        -7.98176657106133   -5.89803992100791   -9.35273965524128
N        -6.26176969228820   -4.17864896581884   -6.69432266153539
N        -7.58778482786041   -6.39953255227525   -6.77329298645994
C        -5.48290972328103   -2.96661514503007   -9.24140242253879
C        -4.78671155229492   -2.34952169165275  -10.33413684529595
C        -4.25697872790519   -1.09943698449856  -10.14953963438761
H        -3.74646261583245   -0.63077471447610  -10.97377967960188
C        -4.32906390046618   -0.37580905324048   -8.94001363867209
C        -4.90425581700349   -0.99810485441874   -7.86711479487440
H        -4.94014799016668   -0.52911221813641   -6.89577210019583
C        -5.44253963834893   -2.29810597191674   -7.97750338689799
C        -5.94110778358258   -2.92634491761851   -6.81342494368666
H        -6.03477748735256   -2.27919370818561   -5.93655862804449
C        -6.73522071210560   -4.63657660577108   -5.38855401505113
H        -7.70580633270320   -4.15307052861021   -5.17797488796874
C        -5.78314636602359   -4.35558967905244   -4.22165677920593
H        -5.58910906354472   -3.28648614144273   -4.12186223799828
H        -4.83155682276984   -4.85333982325809   -4.41935164408056
C        -6.40341341582215   -4.87827025908528   -2.92711255433540
H        -5.71673084648850   -4.70282256164661   -2.09743235122533
H        -7.32303065394520   -4.32452881407363   -2.71967303615743
C        -6.72055356728030   -6.36760265607373   -3.02492963513131
H        -5.79068460129087   -6.92770114785389   -3.14014736920226
H        -7.20170858186481   -6.70166197572446   -2.10385921710783
C        -7.63159428006441   -6.66710606421848   -4.21563558428517
H        -8.59844588548960   -6.17543161429634   -4.07523221200257
H        -7.79257285290156   -7.74492571120862   -4.27822153131552
C        -6.95156579427446   -6.15618879495253   -5.48572367066365
H        -5.95751030983771   -6.62557974576196   -5.56344650735401
C        -8.66426509113027   -7.10034661832391   -6.88295975691121
H        -9.12850991084632   -7.51843640423597   -5.98828884149669
C        -9.32255101407658   -7.40462399737266   -8.10589248335891
C       -10.40487687448291   -8.30416339417059   -8.07943771395472
H       -10.67780882171890   -8.72139905978359   -7.12238559469216
C       -11.06893029602454   -8.65232208531467   -9.22560829261704
C       -10.62452572894166   -8.07770645303390  -10.43126610716739
H       -11.13393375698438   -8.36845270715639  -11.33425970781994
C        -9.58874175589691   -7.18165565162106  -10.52473635094641
C        -8.90377028729325   -6.79847262697114   -9.32759789354012
C        -4.63422108357512   -3.12130868400559  -11.63665972605836
C        -3.97090245998924   -4.47302531449937  -11.33206964939876
H        -2.98123001721534   -4.31705558976115  -10.90744456911513
H        -3.86829546811870   -5.04954363752463  -12.24857902721321
H        -4.55936903314588   -5.05640100219053  -10.62347304686173
C        -3.76119167815993   -2.38579959214549  -12.65930761280710
H        -2.76520514253122   -2.19789047905060  -12.26414269400895
H        -4.21228980939574   -1.44311626699280  -12.96311276079330
H        -3.65703123901119   -3.00559915768173  -13.54747191888713
C        -6.01673606622739   -3.34829232301057  -12.25888022398650
H        -6.62349588640780   -3.95340476829222  -11.59491019199633
H        -5.91654805890248   -3.86820510010494  -13.20931876507807
H        -6.51758261632935   -2.39688943432096  -12.43346291171491
C        -3.74208691977707    1.02597601837967   -8.88680701269425
C        -3.91138548227593    1.67769514569299   -7.51151259614105
H        -3.38356349420360    1.11485298611168   -6.74513261366590
H        -4.96238668836322    1.75101400138924   -7.24112335782893
H        -3.49854101155244    2.68428354971710   -7.53268333496916
C        -2.24161836351213    0.96072099357518   -9.20364131219165
H        -2.06322865192168    0.57931115030701  -10.20495837131407
H        -1.73670960984450    0.30698018993683   -8.49562958562394
H        -1.80049194976741    1.95303202226168   -9.13451565027191
C        -4.45481113650913    1.90682784551724   -9.92266423512934
H        -4.32371914313292    1.52065297336035  -10.92952070103972
H        -4.05700153583869    2.91913296261142   -9.89212321261594
H        -5.52126130691919    1.94820687894149   -9.71058579919579
C       -12.23988810803897   -9.62192620186088   -9.25902876616242
C       -11.87790809214023  -10.82061818349608  -10.14669471768355
H       -12.69547535305962  -11.53855797090224  -10.15895952128158
H       -10.98799518605210  -11.31544900209342   -9.76364072581832
H       -11.68128939785587  -10.51265337735151  -11.16967956341765
C       -13.47128389887838   -8.90439305954409   -9.82995494149769
H       -14.32568116907269   -9.57794881259949   -9.84392118851378
H       -13.29470780417619   -8.55933515606602  -10.84478167989296
H       -13.72176373571564   -8.04160767995607   -9.21590625117577
C       -12.59960912241512  -10.15091741252099   -7.86780973729145
H       -13.44434331182174  -10.83243242894104   -7.94551883175536
H       -12.88363549577563   -9.33897797272733   -7.20203888520780
H       -11.76680907768844  -10.69695070138995   -7.43085304357820
C        -9.13819375325364   -6.59314172358715  -11.85448752590005
C        -7.65153228452810   -6.91394588161116  -12.06906110688751
H        -7.03842705082766   -6.51987155095807  -11.26050555688578
H        -7.31013717897818   -6.47867460283268  -13.00564728009633
H        -7.50623443234585   -7.99162744734166  -12.11297172096225
C        -9.35841669844613   -5.07440820052728  -11.82264713323177
H        -8.78389333090003   -4.62566515872074  -11.01845277399751
H       -10.41316508918197   -4.84860225723477  -11.66840376606679
H        -9.04113259145670   -4.62866902303755  -12.76293583704091
C        -9.91705591483735   -7.15616120307124  -13.04845653802184
H       -10.97647857403909   -6.91570007331552  -12.98255328154674
H        -9.79642367016118   -8.23459821986457  -13.12444044358374
H        -9.53197727852727   -6.71154254703492  -13.96388401784797

