55
CSD_code = GOSGOK | q = 0 | S = 0 | Stoichiometry = C24H24N4NiS2 | MND = 4
Ni        0.19867478161699    1.09418422961776    2.02729541735251
S         2.08060123788059    1.69956896768639    1.25870948532690
S        -0.80229019463319    2.31718207040306    0.61292779179600
N        -1.43499893698081    0.47891528346738    2.81944346026754
N         0.98177156499740   -0.07342900332718    3.33075070504838
N        -0.32894236844621    4.66510259249631   -2.17909088744660
N         3.74883202349913    3.80364288560763   -1.25608505280991
C         0.43660872979310    3.08766829870008   -0.32804553896342
C         1.74467452836105    2.80744897224811   -0.03501659346656
C         0.02895987611608    3.95852646632889   -1.34789040564721
C         2.83804466500790    3.36076547091074   -0.71540987214006
C        -1.26545315436157   -0.37348088660896    3.79680750559142
C         0.10956458609363   -0.70341764518600    4.07436362021952
C        -2.72438374195555    0.91337433416627    2.45616102870717
C        -3.42408153890857    1.80945543748995    3.25998599020740
H        -2.97290015253371    2.16731282202634    4.17482041800196
C        -4.66740088111022    2.26455539475468    2.86595990338466
H        -5.19330306331456    2.96972106456817    3.49299759008663
C        -5.24388988124216    1.83757578908618    1.67653555828766
C        -4.53597009921273    0.94342713431154    0.88034439444853
H        -4.96418481233212    0.60844822960590   -0.05280519243886
C        -3.28911993939348    0.48759602837323    1.25609540774679
H        -2.73494000032932   -0.19205390584034    0.62444600369711
C        -6.58554908441063    2.33690749945866    1.23976915518253
H        -7.04256945405193    2.95456088454770    2.00839552296656
H        -7.25005224419185    1.50333483072304    1.01748923359918
H        -6.48506112492918    2.93170662949457    0.33264995625104
C         2.36240647416865   -0.30498209401669    3.48375774887083
C         2.94117820984005   -1.48925864303266    3.03184173878192
H         2.32007891801405   -2.23933411375179    2.56255281643566
C         4.30291345377514   -1.67920467374223    3.15045258075767
H         4.74299494950679   -2.59599747799864    2.78581168793540
C         5.11742353350937   -0.70817162193192    3.72346813078778
C         4.53080502957501    0.47009792633626    4.16747471286723
H         5.14646717688825    1.24176297225320    4.60551338277190
C         3.17092028832607    0.67846951374818    4.04651956841018
H         2.72231482554226    1.60463358859971    4.37712442172151
C         6.59580309985810   -0.91858121876838    3.82307177548530
H         7.02906668135036   -0.28399629818985    4.59200006212124
H         7.06829757710131   -0.66948306866505    2.87265540403316
H         6.82594441553542   -1.95776551114816    4.04830292682430
C        -2.41056510979910   -1.03176289414387    4.51004600291866
H        -2.13096196679111   -1.27151566504810    5.53550119302467
H        -3.26508199648062   -0.35471370248041    4.53855106263993
C        -2.81886002615634   -2.30923478009967    3.76804457996497
H        -3.62875006018642   -2.80380911590220    4.29800669319665
H        -1.98193595475622   -2.99964671804600    3.68942691067982
H        -3.16058620586860   -2.06729414619094    2.76452242250313
C         0.50620500786518   -1.61922725369336    5.19574585029494
H         1.44681630225998   -2.11441289563835    4.95217071476609
H        -0.25377402011506   -2.38549581085131    5.34563986352006
C         0.69454630534546   -0.81168468907466    6.48477614734950
H         0.95174399591962   -1.47644099598662    7.30522030625482
H        -0.21443597976836   -0.27381116581598    6.74483320565083
H         1.49808375451063   -0.08973932183344    6.36116348417222

