40
CSD_code = GOSJON | q = 1 | S = 0 | Stoichiometry = C11H22Cl2N2RhS2(1+) | MND = 6
Rh       10.03209421691173   -0.02017139379342    3.00872842341745
Cl       10.03247584040657   -1.70976914085235    4.63096924355854
Cl       10.03182657485470    1.49490296798199    1.19851730827539
S        11.93474731187237   -0.94922259232728    2.06720479046123
N        11.74135932736404    0.93648643339999    3.96152552362477
C        10.03199515540481    2.68146966782145    4.59659790858312
H        10.03198179906649    3.61936243523809    5.15240371605189
H        10.03200432687272    2.92892513803099    3.53387254827495
C        12.84088611326919    0.59894837112888    1.76523938506856
H        13.89500542076354    0.33199010154377    1.70173004850153
H        12.51674201739862    0.98949006962721    0.80317283312937
C        12.54386747494011    1.58198798215706    2.90308320475467
H        13.47930733128102    1.95518816520648    3.33910347040749
H        11.98370392911357    2.43071808276475    2.50888514513745
C        11.31670158980921    1.92731545783612    4.96675573675816
H        12.12561772317277    2.65135896094079    5.11587558063879
H        11.15552936562790    1.40632562772033    5.91361048045414
C        12.58778783579752   -0.10316627058750    4.58337492412684
H        12.06797577515588   -0.49348532962164    5.45986848667321
H        13.53215682280682    0.34925120305434    4.91036193898836
C        12.84826897739578   -1.25691608618922    3.60814980706627
H        12.49894046777447   -2.20543840594370    4.01082534038062
H        13.89833174911463   -1.35310863856002    3.33485230358213
S         8.12928684593467   -0.94913947599508    2.06730155750417
C         7.22310449925039    0.59897505576932    1.76521303771552
H         6.16898179089070    0.33200961054514    1.70171381386526
H         7.54724986630838    0.98950441857563    0.80313992574154
C         7.52014863150716    1.58199033611401    2.90305982238705
N         8.32266528337443    0.93643637276864    3.96147549542502
C         8.74729625558151    1.92728264988565    4.96672057139071
H         7.93837214445670    2.65132089611378    5.11583757832320
H         8.90845990970651    1.40629487693209    5.91357937618182
C         7.47616059750620   -0.10314684435523    4.58336271976908
H         7.99595913544207   -0.49346432794811    5.45986265534015
H         6.53180559071511    0.34929970478810    4.91034355638010
C         7.21564419577798   -1.25690739534182    3.60816244526735
H         7.56493853129820   -2.20543930309226    4.01084625608785
H         6.16558608747657   -1.35307166804010    3.33483113050257
H         6.58471200440053    1.95520047697484    3.33908814637815
H         8.08032148419853    2.43071180972830    2.50885376382548

