33
CSD_code = GOSMOS | q = 0 | S = 0 | Stoichiometry = C10H8N10O4Zn | MND = 6
Zn       -0.07025759260783    0.62062183188266   10.30112266790953
O         1.81852348437468    0.27093508581417    9.45826615305979
O         1.30211460883416   -0.65881545296952   11.26235849749711
N         2.14113778042423   -0.50643444047066   10.36978586722666
O        -1.94809811296521    0.36853422288613   11.19689667554202
O        -1.43739345283720   -0.77981101665931    9.52173725856323
N        -2.26987263882178   -0.52286726257201   10.39626911556360
N        -0.67920616554131    2.02380784807355    8.76904144936992
C        -1.80186534209449    2.71965252021566    8.90732714211421
H        -2.22358665699354    2.74897010216530    9.90187621021690
C        -2.42179083885106    3.37073365448622    7.86153493485324
H        -3.33661223542437    3.92173122466012    8.02023127204381
C        -1.83989920575452    3.29226255287804    6.59089460601722
C        -0.65751083541128    2.56208982168883    6.44992689388515
H        -0.18390247239073    2.48009423046621    5.48573716904744
C        -0.12362698671641    1.94839595650041    7.56352511859161
H         0.78561118003700    1.36863882604426    7.50305576885562
N        -2.37043325441523    3.89691889459111    5.48792985779591
N        -3.35054906999615    4.55750384033465    5.34462468630442
N        -4.20560359351407    5.19106595676431    4.99290627749325
N         0.54251641980727    2.21116419214220   11.63495694705080
C         1.62864992423880    2.92836706511624   11.37132587844626
H         2.00004158223087    2.87361030157327   10.35796018656425
C         2.27309366362889    3.70009421031669   12.31515990056376
H         3.15643804037282    4.26432064020003   12.05607019749257
C         1.75863740286517    3.72596755591358   13.61667807590355
C         0.61388173377230    2.97355858638716   13.88942696115706
H         0.19242701309106    2.96983996742264   14.88089616377311
C         0.04984787591658    2.23612152035699   12.86970995586849
H        -0.83253740282241    1.63518442963026   13.03293795013935
N         2.32038017314470    4.45257861358872   14.62680625781165
N         3.28230754768007    5.15377452291370   14.65300224174898
N         4.13043742673530    5.84518999766448   14.89562166152822

