47
CSD_code = GOSNEH | q = 0 | S = 0 | Stoichiometry = C20H19CrNO6 | MND = 6
Cr        3.97713145835718    3.64369719839745    4.67723909221431
C         5.51326108073161    3.46081018578847    3.62445811740280
O         6.57246687804897    3.40185276839451    3.17240560482406
C         2.61591126173751    3.89256055709823    5.92644456302137
O         1.88037056155694    4.08021999347878    6.79270969579174
C         5.17308908157697    3.62031491883842    6.09320490483035
O         5.92078712935754    3.60398804609413    6.97103327436667
C         4.19750275254438    5.49320999139415    4.61310217973043
O         4.38747625905673    6.62570122323433    4.70074012856064
C         3.84992487248314    1.79828436850415    4.95165805520142
O         3.87092003866608    0.70136973312158    5.30585536197225
C         2.59099460313824    3.72381206124030    3.11966092607006
O         2.49799008975277    2.94471548216564    2.03595687724756
C         3.40677503179497    1.88367772073451    1.82034806414868
H         3.28396385728730    1.12860789632663    2.60794184007791
H         4.43659203181258    2.26290072998500    1.86184840783188
C         3.11411236530213    1.28004030831073    0.45480766294625
H         2.09325534615986    0.90887082193996    0.41995923166521
H         3.80002350540128    0.46085548158503    0.26060364197086
H         3.23116461269347    2.03406446117433   -0.31901277411645
C         1.56033182442010    4.69671078652219    3.14190544096316
H         1.64133255790892    5.44042282483001    3.92117534877585
C         0.46928357571777    4.78527402348282    2.29992807934523
C         0.16601117377757    3.75425159119510    1.27966751373518
C         0.41843369171597    3.99740632190568   -0.06504450456231
H         0.87631944819017    4.93002583027859   -0.36119366119116
C         0.10742276757290    3.04125708626659   -1.01491221617065
H         0.31451207862699    3.23278665468598   -2.05747467956950
C        -0.46844724932566    1.84173187386511   -0.63205364368135
H        -0.71213096422362    1.09696514682840   -1.37504743519847
C        -0.72674021700409    1.59719868686882    0.70694984707222
H        -1.17368063459687    0.66150226094976    1.00952029281721
C        -0.41243062242729    2.54813571427559    1.66036994920446
H        -0.60440011840860    2.35824421360208    2.70644237972037
N        -0.41339329414848    5.79291428542407    2.37644492278707
C        -1.65131848093018    5.84828090440620    1.62096830482255
H        -2.13582956276948    4.86998927578014    1.59328908712994
H        -1.45110217574238    6.15927593540916    0.58811462791300
C        -2.47996633554320    6.90200496217628    2.35023205780228
H        -3.21001819498106    7.37746766990496    1.69961177820040
H        -3.00308607768093    6.45064386625430    3.19370844580807
C        -1.40986070407081    7.86753662476823    2.85232183506741
H        -1.75258919802163    8.49013317257884    3.67515570806489
H        -1.07948540724679    8.51459665475553    2.03912096986885
C        -0.28113884900371    6.92781267532700    3.27047675233758
H         0.70494010922685    7.38686789918932    3.16734138970849
H        -0.40558195849572    6.60380911064193    4.31081655346231

