51
CSD_code = GOSQEM | q = 0 | S = 0 | Stoichiometry = C22H20Br2N4NiP2 | MND = 4
C         0.73403002678699   -0.64048855029909  -11.04061424113883
H         0.23036002448183    0.20388547622690  -10.56720820563188
H         1.80468978997904   -0.59416274797854  -10.81837658421646
C         0.49482910614254   -0.69314141826423  -12.54079195333486
H         1.04170923303434    0.08330106812843  -13.07817042917081
H        -0.57221230214162   -0.60625649522608  -12.76856303242083
C        -1.69257183821429   -1.92612659896790  -10.20674455306114
C        -2.61155809413768   -2.88943129597680   -9.80398200899699
H        -2.29474025405476   -3.88944346127186   -9.54630013911715
C        -3.95002095329938   -2.53442785634899   -9.77219648478411
H        -4.69451151478488   -3.25488199872912   -9.46695794296653
C        -4.31709836272536   -1.25078555482956  -10.14661377099824
H        -5.35012376708278   -0.94040842068320  -10.13850242122722
C        -3.32069781518428   -0.37339858611261  -10.54793254522392
H        -3.55042424449013    0.63664679583591  -10.86327688429185
C         0.63970631834350   -2.10573341390987   -8.58988441240896
C         0.07490770469745   -2.82585946430677   -7.54355745107894
H        -0.74540659484544   -3.50438181125471   -7.71532388915644
C         0.62051561625241   -2.66132325237846   -6.28158035186569
H         0.21692560175097   -3.20621426430179   -5.44121840138232
C         1.69171872180199   -1.79628622813442   -6.11624462679094
H         2.14440769537255   -1.64773953142773   -5.14849502342955
C         2.17627668465334   -1.12706070654477   -7.23037695416895
H         3.01075531487775   -0.44112072001332   -7.15907007662138
C         0.51535842981774   -2.34393824608425  -14.87300829705434
C         1.02143064226757   -3.19175981038915  -15.85165483026419
H         1.78004638622663   -3.92114912018166  -15.61723136401777
C         0.49664075523700   -3.08570137199307  -17.12863280909621
H         0.85601529944365   -3.72969194542010  -17.91737249380523
C        -0.49626802138814   -2.14961808292283  -17.37559064251484
H        -0.93041890506638   -2.04273497471874  -18.35721969520171
C        -0.92683998639691   -1.35338155079287  -16.32461678851507
H        -1.69979867775871   -0.60763780321642  -16.46034385560932
C         2.84736438309874   -2.17076923596301  -13.25855743653029
C         3.70944868760144   -3.20532602622513  -13.60698687528441
H         3.33633736519005   -4.19892868854972  -13.80713872967275
C         5.06544823507637   -2.92829151242098  -13.65926072982833
H         5.76707446462819   -3.70468739125966  -13.92627613265122
C         5.50553827727138   -1.64903531952149  -13.35476544549887
H         6.55424836367541   -1.39797031893022  -13.38147880785231
C         4.56177773373138   -0.69728216087439  -12.99879496045800
H         4.84935948521910    0.31274662741325  -12.73541781878265
N        -2.04293716668628   -0.70126997771210  -10.57851162018728
N         1.66553664100518   -1.27941516632149   -8.43754099363909
N        -0.43634691929186   -1.44964277935580  -15.10333533664024
N         3.26741915040982   -0.94988705532174  -12.95215995722099
P         0.10882703900219   -2.21079384928957  -10.32712621718187
P         1.03283757678101   -2.34611989058564  -13.12797080372633
Ni        0.52986046173071   -3.85199630061075  -11.66445559780605
Br        0.91141372679291   -5.42915349500821  -13.19507079272718
Br        0.07206047516869   -5.27492551697684  -10.00739858474139

