65
CSD_code = GOSVUH | q = 0 | S = 0 | Stoichiometry = C32H24F3I2OP2Rh | MND = 5
I        -2.14786818126042   -4.10264023829009   -0.60765682865451
I        -2.32882455039514   -0.94415705282155   -2.91526222250676
Rh       -1.04191212069207   -3.24795487246498   -2.81605043370328
P         0.37298398334220   -2.26524698296346   -4.26254206055803
P         0.61620353715755   -4.76352591380857   -2.53000147084241
F        -3.19509517483579   -3.07515926818067   -5.61996995791028
F        -3.90151722556390   -3.89671606888649   -3.74717600054859
F        -3.51605780981138   -5.19301527641683   -5.41418136540179
O        -0.92512331923780   -5.07951447446273   -4.98801711657680
C        -1.58831396360717   -4.30045975154007   -4.35077914826109
C        -3.07217303724880   -4.10501485293609   -4.76972867002895
C         1.57641191957156   -3.52969885017152   -4.79705009897034
C         1.66784062897307   -4.68807525995987   -4.02041266148465
C         2.54724958884903   -5.69679325732494   -4.38306479754761
H         2.59804072681662   -6.60587813318438   -3.80163409072717
C         3.34268035583930   -5.54324716893835   -5.50649034892195
H         4.01836516909452   -6.33445965138574   -5.79472211744192
C         3.26814488957422   -4.38628254570101   -6.26507475763101
H         3.88947077411901   -4.27241049702328   -7.14070840097408
C         2.38420135235447   -3.37961193476153   -5.91578432181797
H         2.30724995764616   -2.48861612674432   -6.52370222296381
C         1.43766651493164   -1.07548783881984   -3.39681687521511
C         1.32751712218631   -0.94846268295896   -2.01596537056028
H         0.56827108467442   -1.50913441777916   -1.47008386830594
C         2.17153449669740   -0.09704823789335   -1.32828263384167
H         2.07669729541203    0.00278905583171   -0.25773422140557
C         3.13193763854079    0.62394698590709   -2.01793737259961
H         3.79019669050998    1.29210913415672   -1.48335660508515
C         3.24859411294853    0.49535080055892   -3.39387352290564
H         3.99687645668412    1.06154763479716   -3.92859769745843
C         2.40699406692897   -0.35381288053278   -4.08712865812513
H         2.49081817205737   -0.45198964989555   -5.16075043374520
C        -0.15647324119957   -1.47786142591690   -5.79591740072082
C        -0.46895931303522   -2.28132937860393   -6.89129850887585
H        -0.32594704806841   -3.35293261280188   -6.83574529989301
C        -0.96524510564851   -1.70248425769650   -8.04355480677624
H        -1.21127212891872   -2.32433784756745   -8.89102163535865
C        -1.15912808934014   -0.33137852826085   -8.10410796098197
H        -1.55672245866709    0.11528976468079   -9.00290804043189
C        -0.85646791837925    0.46596517006856   -7.01214977970646
H        -1.01956077969484    1.53201211319838   -7.05570210860290
C        -0.36054897951696   -0.10187918177952   -5.85356926180456
H        -0.14526895045272    0.51414077954853   -4.99143064707143
C         1.79119754164812   -4.28283337755461   -1.22535594400161
C         1.49413323031010   -4.59712749543094    0.09985910771714
H         0.60937600579738   -5.17368454902494    0.33185041638990
C         2.32733861022055   -4.16739764298927    1.11487575160952
H         2.08775625209105   -4.40903025433007    2.13912030813693
C         3.45894773348098   -3.42347995295117    0.81867593341561
H         4.10504475259480   -3.08293331377090    1.61375631205261
C         3.76214295924496   -3.11710747438656   -0.49753424652208
H         4.64473291650088   -2.54095998152801   -0.73366732521694
C         2.93202735522281   -3.54060311272642   -1.51949767431924
H         3.17741131781176   -3.29649373000890   -2.54496558795903
C         0.32727354827979   -6.52290799852901   -2.21310095206723
C         1.35579992669454   -7.30051887876184   -1.68180680232660
H         2.30390857173802   -6.84512149036692   -1.42638776103637
C         1.15213360720474   -8.64911845867313   -1.45927396203264
H         1.94970280606683   -9.24895861964855   -1.04592987926223
C        -0.07219637128325   -9.22721311247936   -1.75601359995165
H        -0.22781504012102  -10.28005988322682   -1.57505846389876
C        -1.09876399045922   -8.45407902440602   -2.27150902091543
H        -2.05729356388845   -8.89875410134894   -2.49072388927693
C        -0.90212016339256   -7.10433545534257   -2.50023366994085
H        -1.71350514508232   -6.50441641282012   -2.88893724764802

