41
CSD_code = GOSWAM | q = 0 | S = 0 | Stoichiometry = C14H20Cl4HfSi2 | MND = 12
Hf        1.88865703884884    4.03751745619295    2.92259248386685
Si        2.05887558599463    0.28427263793970    2.47194477354512
Si        3.28429875457746    7.48916934947004    3.38283415513059
Cl        0.52858001616820    5.75028489977014    2.13629797545107
Cl       -0.00805930066838    2.95319931610132    3.69265116444739
Cl        0.21267791565881   -0.32253421771328    1.88971969471471
Cl        5.01650010786383    8.23145146949844    4.19197173779574
C         2.38477737755035    1.99958215406684    1.76510999631159
C         3.62546681065872    2.69815991649008    1.80688212015028
H         4.52949592136765    2.32558119158303    2.26704901456813
C         3.53258378163306    3.83920950410916    0.98478125747158
H         4.34877028191525    4.49431444607368    0.71947127292552
C         2.24706303252686    3.84907344233835    0.39863164072966
H         1.90379970587325    4.53538242604774   -0.36217630273352
C         1.53952737519969    2.73275463137398    0.87731345599761
H         0.55840193406045    2.41418162828197    0.54962936050060
C         3.97204871397876    4.69164217142271    4.04741833783287
H         4.95183362288693    4.74872977659225    3.59457398848568
C         3.49780519214697    3.63762856974613    4.85523595069272
H         4.04379960888335    2.74110482453933    5.10821987652505
C         2.28574091418968    4.05505267883062    5.44775601415275
H         1.72973616033978    3.51390520136287    6.19951898891824
C         1.99748169224776    5.35191110886576    4.98768557190262
H         1.17743128383359    5.97351518069689    5.32248012424762
C         3.04289027212766    5.76875686080507    4.10907414785992
C         3.35034823371887   -0.91273686777061    1.73935849293091
H         4.36095006308303   -0.64073813196755    2.02471049539975
H         3.30700202578202   -0.92447268151234    0.65496629134272
H         3.17157326663562   -1.92514507730666    2.08557571439932
C         2.18976512163233    0.27600076589115    4.37616742293720
H         3.21571520440613    0.39912435541461    4.70990123473906
H         1.83467438584165   -0.66945706111912    4.77531961455098
H         1.58639576198313    1.06409794463618    4.82011169053236
C         1.85249684310177    8.64074581042720    3.86416272435928
H         0.91292146917217    8.27928211918761    3.46024360205484
H         2.01821917242310    9.64133440249041    3.47684571028506
H         1.75097091874639    8.72133975132723    4.94266175320469
C         3.56621387703161    7.40284460635603    1.49734104725756
H         2.77029608352234    6.85231535951939    1.00364197442227
H         4.51681089408877    6.93536069685773    1.25491517899719
H         3.58696287897733    8.40155738311026    1.07171025109478

