81
CSD_code = GOSYOE | q = 0 | S = 0 | Stoichiometry = C36H38N4P2Ti | MND = 6
Ti        0.24118850820266    2.51080208167635    1.36448642031156
N         1.48193570285625    3.48344716726278    2.48275753938236
C         1.66062540538174    4.51233362073380    3.33678738163413
H         0.82096427778444    5.04815090782798    3.75485146325191
C         3.00947337761824    4.71531425523560    3.55784038475003
H         3.44888739493921    5.46318439127876    4.19104575442667
C         3.69752589687951    3.75870561609677    2.79424533766253
H         4.76214980940922    3.63069156031426    2.71902316917209
C         2.72661793326288    3.00809633403533    2.14921432184530
P         2.71763448953268    1.62804520989739    0.98434357033102
C         3.25826894645829    0.21094027274414    2.00971013374236
C         3.44793617235700    0.30333725034364    3.38274020179532
H         3.33050912817205    1.26055452088094    3.87389177982648
C         3.78693655523972   -0.82243228228998    4.11396583369748
H         3.93647773516312   -0.74511042253845    5.18170232085301
C         3.93526718867278   -2.04648723194144    3.48310380644977
H         4.19986816179011   -2.92258914204906    4.05710541410797
C         3.73917488710883   -2.14712934889615    2.11428116553209
H         3.84963547435683   -3.10204235856858    1.62050929831601
C         3.39505474927007   -1.02649582134856    1.38237354229154
H         3.22986027871200   -1.09945058007529    0.31417653056612
C         4.26386147256486    2.00322887191448    0.07036838712112
C         5.40924346343272    1.21763819824128    0.09204632962058
H         5.44744755823182    0.32821388388302    0.70404079145692
C         6.51181064414158    1.57674753021734   -0.66477119785645
H         7.40109838099052    0.96292887234537   -0.63659109657898
C         6.48128074914985    2.71418932099447   -1.45280725799221
H         7.34384029341177    2.98832022070017   -2.04261712827832
C         5.34003100448602    3.50057874902242   -1.48145161103831
H         5.30936368144275    4.38960220042467   -2.09479115570189
C         4.23840271940155    3.14549371309094   -0.72798686898651
H         3.34484285540632    3.75791870837249   -0.74943150994316
N         0.66867761051232    3.57068074009439   -0.26498788647503
C         1.08351848838769    4.78413412823346   -0.68401033277930
H         1.49818200106095    5.50624248596464    0.00526840560664
C         0.90902874299670    4.90312423586018   -2.05259434898276
H         1.15462952702547    5.75709110552742   -2.65595365215782
C         0.35250553259270    3.69793107477702   -2.50137022418385
H         0.07807433058299    3.44063106644552   -3.50791876558729
C         0.22812006851621    2.89716404366467   -1.37385799055615
P        -0.40702196132630    1.27245371936646   -0.95838957410613
C         0.82223399460582    0.12595712552509   -1.69218470088766
C         2.06125313651554    0.58043153756789   -2.13164516085364
H         2.26653552988616    1.64296046225848   -2.14506203931107
C         3.02236714464784   -0.31825107688922   -2.56064953312231
H         3.98453919531784    0.04529670768255   -2.89161659765791
C         2.75545725684564   -1.67769207691989   -2.55440926755687
H         3.50807174200439   -2.37878498748058   -2.88438104580295
C         1.52218446337851   -2.13906508176634   -2.11980292842007
H         1.31278027678690   -3.19917421891916   -2.11412624582137
C         0.56411381172247   -1.24402232569394   -1.68081524786635
H        -0.39502505490015   -1.60146664380964   -1.32629720807123
C        -1.79454998942905    1.18856958857571   -2.14896681188612
C        -1.84473173404499    0.38047260971277   -3.27645255751483
H        -1.02453798628953   -0.28374409512525   -3.50735569677038
C        -2.94634131874259    0.43589154433267   -4.11423794033291
H        -2.97985156213291   -0.19062006659762   -4.99409381560078
C        -3.99827026688502    1.29080963377047   -3.83463545107422
H        -4.85357997393485    1.32911971624406   -4.49303020348196
C        -3.95111917112665    2.10121516811713   -2.71000695434655
H        -4.76990853948205    2.77226087646751   -2.49334916941230
C        -2.85645882328835    2.04702000007070   -1.87060848236536
H        -2.79555117769998    2.67774719055457   -0.99015822576937
N         0.13229333947771    0.91414274794738    2.31251695340042
C         0.09906772522413   -0.47314085201843    1.93307844647349
H        -0.93036705610941   -0.87533783591226    1.95975506164098
H         0.70680172696229   -1.08908822553723    2.61607130369956
H         0.49597945053666   -0.60619343704663    0.92323099441780
C        -0.09417716912802    1.05079737290865    3.73401406330643
H         0.71529985221632    0.56370255853129    4.30729504279797
H        -1.03969248330164    0.56648029221630    4.03475461116015
H        -0.13673968811048    2.10829915563749    4.01886421955204
N        -1.41653817927546    3.23227354621094    1.67164799100941
C        -2.60768842237983    2.50761490282685    2.03444550779011
H        -3.46318573094506    2.81964533765307    1.41145120025215
H        -2.89087028847081    2.69122814913078    3.08596835738962
H        -2.44901215007951    1.43541068427408    1.88953116741273
C        -1.64446573350927    4.65530453488552    1.67949747722050
H        -2.42564936406034    4.93856684372735    0.95224066474483
H        -0.72487237073050    5.18881776121360    1.42250725486629
H        -1.98442364835239    4.99696600592184    2.67336628421168

