55
CSD_code = GOTBUO | q = 0 | S = 0 | Stoichiometry = C20H29FeN4P | MND = 5
Fe       11.89658233181273    2.66117592391450    3.54900236185634
P        13.28600713982804    4.33212777450492    3.69003146849593
N        13.04659153388731    1.05257114458057    3.55578139482879
N        12.11383118864431    2.44956421132518    1.71198115663413
N        10.14117985234377    3.36480339314881    3.35027386588266
N        11.41565069479948    2.70551505586956    5.40520935628664
C        13.40353974669472    0.21058029141961    4.53768485348427
H        12.92093386792778    0.36564711953049    5.49076303302004
C        14.29999553758619   -0.81743274296858    4.39194751331370
H        14.52581689611950   -1.45936323017955    5.22915030655782
C        14.91171901910170   -1.02936844526425    3.14439521593574
H        15.64081001238670   -1.81531089560237    3.01654744141291
C        14.53499269138610   -0.22738455149094    2.10309163627425
H        14.94557781522530   -0.35409666134604    1.11208983537698
C        13.57646471643906    0.78225125817529    2.31191533686035
C        13.01389608599487    1.57652847559455    1.30558449343829
H        13.27876057137015    1.45924577115122    0.25937714148158
C        11.40925503548530    3.19400770256059    0.70460476379910
H        11.67623738852083    2.83396391821095   -0.29851136004384
H        11.69392491025938    4.25144205424634    0.77417556433442
C         9.88343472359800    3.09476100470416    0.88485168549808
C         9.48561984175998    3.84985278824853    2.16084888252268
H         8.39428199519364    3.79352115122696    2.27922671478250
H         9.74804728162103    4.90951588692854    2.02846340248263
C         9.45030514336788    3.48025417880017    4.47252511500541
H         8.43327150705677    3.86083792581561    4.48927998422405
C        10.12895236895411    3.13815618040200    5.64414153521170
C         9.61598318689479    3.26806792167129    6.95078511898465
H         8.59506720884706    3.59835213577900    7.07291150925959
C        10.41063278406916    2.98345670134795    8.02455777998235
H        10.04171172104038    3.06318655168568    9.03596812755745
C        11.74454621509756    2.60650170096151    7.78032241639349
H        12.41716760240059    2.40756046174334    8.60006286372528
C        12.18288842944938    2.49768490746183    6.48665764438349
H        13.21319958211273    2.24389853391250    6.28253579400065
C         9.46325397120874    1.62985988965471    0.99580676743792
H         8.38184383792948    1.55047668095066    1.08105365481570
H         9.91991393571612    1.18689702499247    1.88158473345538
H         9.78586046620249    1.07132269774009    0.11987234563845
C         9.19602284986380    3.74885379490308   -0.31532918157325
H         8.11568066051010    3.73420045882625   -0.18959304299999
H         9.43924056108724    3.21461548029094   -1.23108033758065
H         9.51387189063615    4.78391501261605   -0.42693391718772
C        12.57786124888441    6.01182421740520    3.38265920202467
H        11.81529743830827    6.20746154621401    4.13505265873610
H        12.10340898307608    6.02574029567952    2.40363916658207
H        13.34285645014581    6.78658836319510    3.42579131361087
C        14.24226130390940    4.73762146196634    5.21711381729726
H        14.83442179003848    5.64147050837847    5.07581829902031
H        14.90383586618714    3.90668276232160    5.45477411903386
H        13.55227533568628    4.88100158283232    6.04675039344466
C        14.68146447777355    4.37329953446094    2.48520983976019
H        14.28483665941949    4.35425823069907    1.47239350259881
H        15.29036048755091    3.48202997416384    2.62856625300148
H        15.29585515859883    5.26290488464284    2.62081645964163

