123
CSD_code = GOTDAW | q = 0 | S = 0 | Stoichiometry = C64H54OsP4 | MND = 6
C        13.14330510354325   11.32770337179688    7.36611073964560
C        12.65053094149973   12.15550398369167    6.36460684107024
H        11.96935794042359   12.95950649838172    6.59801816355549
C        13.03167462294713   11.95687361750804    5.04784667411848
H        12.64753419706803   12.61098503261686    4.27811028962508
C        13.89653142689893   10.92936025539835    4.71334945212584
H        14.18889159445253   10.78020681665495    3.68426519117293
C        14.38946624983047   10.09468724136377    5.70460552159903
H        15.06863048824054    9.29293295673523    5.45235202235235
C        14.02033820029187   10.29905610821968    7.01989051419278
H        14.42318453594314    9.67345171996601    7.80505602225215
C        11.42041913181898   10.24337040962957    9.27372694929910
C        11.24600176250881    9.20285199595065    8.36990655750078
H        11.94006224887549    9.06638457133928    7.55372171046619
C        10.17321155179619    8.33906300781764    8.50238403333353
H        10.04486013362341    7.53730089842854    7.78947592952757
C         9.26557171105838    8.49914172884656    9.53436098891294
H         8.42715124427209    7.82469152249003    9.62884871842071
C         9.43671962943811    9.52981954540055   10.44328421604280
H         8.73156474759122    9.66371220150456   11.25141135641304
C        10.50596023834931   10.39398577981220   10.31336646895571
H        10.62865144459893   11.21338268922398   11.00789908976519
C        13.14362614674768    8.42338139291005   11.08954763828961
C        13.78410827635630    7.93088540796920    9.95503179363421
H        14.66462903114850    8.43830342197705    9.58614208414094
C        13.32420820002256    6.79248220610821    9.32319132700105
H        13.83705864204806    6.41752619815419    8.44880610869552
C        12.21286364028078    6.12886301244264    9.81565532160254
H        11.85443714684874    5.23351902926321    9.32907926926297
C        11.56525121489597    6.61733562089708   10.93640066916681
H        10.69756150675398    6.10431990794315   11.32555475199859
C        12.02403227374490    7.75766709345805   11.57216313426795
H        11.51003985558123    8.11889823364832   12.45062775907843
C        13.20468185138363    9.66790067681477   13.58691843267647
C        11.91661063558685   10.16714888846825   13.78402366373158
H        11.41227241401162   10.64409784504472   12.95461927369663
C        11.30306791098604   10.07833902977528   15.01832068831583
H        10.30480622592485   10.46876099658535   15.15483239427036
C        11.97744717151779    9.49957241670881   16.08264446826537
H        11.50647907508784    9.43599448682889   17.05274817441875
C        13.25773744687462    9.00729264298338   15.89849933081828
H        13.78716673910687    8.55770129529680   16.72643159329596
C        13.86998116344303    9.08426507038534   14.65827421224174
H        14.86629730715148    8.68662639830636   14.53930924072045
C        15.60749884280821    9.16532051973824   12.08813843502178
H        16.06855110137606    9.60515611907536   12.97875831675452
H        15.56881240857355    8.07696479721903   12.20872095485769
C        16.37757699261421    9.58095014380050   10.86407946681993
C        17.46816315456999    8.83378311538078   10.44186871677764
H        17.75985861014080    7.95117490481304   10.99689746099746
C        18.17747013546932    9.20956053695660    9.31510076797433
H        19.02371989040687    8.62564126863452    8.98244360112551
C        17.79194422903907   10.34134390680273    8.61920854373915
H        18.33817497974980   10.64702576969059    7.73583110061381
C        16.70801244264304   11.09315572095165    9.05046889546091
C        15.96114397532049   10.73686558889891   10.18454270130391
C        16.29855497574164   12.32726453836369    8.29322366517566
H        15.61522323333867   12.05306630604726    7.48273182943658
H        17.15680631875922   12.85993277817353    7.86860802891387
C        16.15457521010528   11.96676184679845   14.02516053456418
C        17.39139443263216   11.54071411365364   13.54031144417558
H        17.62371277159106   11.70354884532727   12.49654053602925
C        18.29586764907307   10.90310093983850   14.36724945037976
H        19.25023427712625   10.58008309717879   13.97685042813403
C        17.96946182057748   10.66902176354882   15.69419206961165
H        18.66926113489519   10.16354859614330   16.34372692238842
C        16.74236537101195   11.08258148395140   16.18276442509001
H        16.48421317856529   10.90031245595670   17.21620196356491
C        15.83889263091819   11.73247757103568   15.35794835383855
H        14.89169656382350   12.05156508305230   15.76505390835694
C        15.71000559735123   14.49662664638354   12.94653660786785
C        16.97416827900134   14.80305076919946   13.43438671285433
H        17.65492592470387   14.01473828182225   13.72011381875747
C        17.36663852781708   16.12321740007808   13.56794789556276
H        18.34967449850421   16.34917709731349   13.95544443380837
C        16.50883222792878   17.15018835476332   13.21591334608573
H        16.81896466423696   18.17874014233466   13.32890650267454
C        15.25017122566322   16.85224373726977   12.72096701191443
H        14.57294147565063   17.64813823026171   12.44504212969504
C        14.85491550553144   15.53578883172760   12.58782244586643
H        13.86398539138887   15.30059439125360   12.22482157141698
C        13.50972453023272   13.06901412360959   13.81292756301873
H        13.24940098938335   12.12932663322473   14.31105620500153
H        13.66802414314853   13.84149326618197   14.57382903472759
C        12.42850387009602   13.44351559558178   12.83582300332895
C        12.57491282947038   13.03600021898152   11.50047682676984
C        11.54647294671367   13.41067606413194   10.62120654521081
C        10.44835262342104   14.14542213776800   11.04577913597135
H         9.67903490902170   14.41825978360205   10.33452317530456
C        10.33177244434809   14.52327588108262   12.37151667102948
H         9.47422930122588   15.09026131780013   12.70457810185570
C        11.32536355717017   14.16762249589413   13.26592790398229
H        11.24722188625365   14.45673162004473   14.30636319014651
C        11.66413187443291   12.99647432446936    9.17949959366613
H        12.15914235134605   13.78901641063667    8.60834285369275
H        10.69000476898353   12.78564336302800    8.72438603626986
C        16.81099751867325   14.38830853318402   10.06053837584780
C        17.92411466739487   13.68253904721276   10.51066723866476
H        17.88807135872756   12.60226958020755   10.53410723205111
C        19.07262533786159   14.34619839845261   10.89428622529922
H        19.93071614536198   13.78428106139792   11.23511027410288
C        19.12568283709293   15.72872321443016   10.83368635201066
H        20.02463632873229   16.25139317996007   11.12610640638954
C        18.02165400454567   16.43738421623139   10.39397257090603
H        18.05705877499288   17.51613659274674   10.34383092065182
C        16.86883496366508   15.77531846605835   10.00995498354840
H        16.01937483662734   16.34514908523198    9.66317544778859
C        14.59282634117908   14.63841979080151    8.38917292118055
C        13.75163795423711   15.56647786636963    9.00393677901623
H        13.60017926895005   15.50110724179682   10.07299752817837
C        13.10595995047673   16.53765869292541    8.26369415032243
H        12.45933590007130   17.25072081657199    8.75473872113852
C        13.28089791558512   16.58555045277047    6.88912872059943
H        12.77196652457818   17.33738097462435    6.30379913301185
C        14.10735271973975   15.66441862936549    6.26934401930171
H        14.24403505545509   15.69748603123700    5.19779508129251
C        14.76564546950278   14.69779041991416    7.01164044162278
H        15.41063655562630   13.99609793650808    6.50519539469825
Os       14.27072107597931   11.89111881970800   10.84092945109993
P        12.74779277363583   11.50250311444996    9.14560464222124
P        13.91172040699743    9.87288010851878   11.91058821125369
P        15.04427081312547   12.79197991500046   12.82467489014002
P        15.37916880670759   13.39809566009303    9.48334427014015

