56
CSD_code = GOTJIK | q = 0 | S = 0 | Stoichiometry = C22H29ClIrNO2 | MND = 8
C         5.69223876795961    2.44961195647012    4.13566521211439
C         5.82816329779131    1.49017375638406    5.17986994834183
C         4.58019298078527    1.41127726062454    5.88160215142342
C         3.64719205845714    2.27383495905902    5.22452193424516
C         4.33437583085156    2.95023603762603    4.17164495625913
C         6.68227725931240    2.76355767479416    3.06279638143042
H         6.65376387868387    3.82264707522557    2.81757610605173
H         6.44002913332541    2.19798708287486    2.16131686574018
H         7.69173866088418    2.51399800204470    3.37816258708988
C         7.02553962961086    0.66414334310631    5.50541245778485
H         7.77721637670658    0.73811331008293    4.72491386961562
H         6.73658454658961   -0.37962738889569    5.62294725581329
H         7.46825694642088    1.00222111013480    6.44258857756084
C         4.28444463225528    0.43062920402558    6.96819985595310
H         5.09926489626984    0.40658441790884    7.68907897232782
H         4.17660260430338   -0.57125098379934    6.54854841775411
H         3.36275282572526    0.67927192153672    7.48911328875384
C         2.18756018201578    2.36422432221522    5.53375311252050
H         2.00105596776860    2.30010785247131    6.60438871980986
H         1.66195714544001    1.53495221243104    5.05713448768203
H         1.75969127592715    3.29200314523239    5.16095288320400
C         3.74515514802600    3.83906178857446    3.11689776702218
H         4.34315810390069    4.74880605841718    3.03136588370584
H         2.73162258033092    4.13483949387443    3.40028750630457
C         3.70360688028361    3.13466969005552    1.78293965666981
C         4.18418850313703    3.75488794790974    0.63807003309051
H         4.59533964635548    4.75184120255191    0.70410709128074
C         4.14110290979872    3.10694268196382   -0.58413834906369
H         4.51783444922904    3.60152246527258   -1.46728467232722
C         3.62084455080968    1.82754002828938   -0.67483102878816
H         3.58943707063016    1.32019808985190   -1.62755170187126
C         3.14176658920308    1.20036455216202    0.46289494519962
H         2.73512585134718    0.20145536964449    0.39922805585126
C         3.18241269517900    1.85056756821156    1.68286397902194
H         2.80986120632654    1.35546348101535    2.56808980475355
C         6.64857817260840    4.08026827073780    8.63495757684980
C         5.53934687027401    5.16918740470641    8.49424471082696
H         5.99359356816895    6.00242505457889    7.94444478220718
C         4.97662617420159    5.66054302231689    9.81921640169924
H         5.79553761819242    6.04539720384875   10.42564600991366
H         4.53220823518950    4.82234716674289   10.36310603019898
C         3.92856163463021    6.73812155490086    9.55309305132980
H         4.40833263324311    7.59968712954858    9.08574536417215
H         3.47905562720497    7.06943184253747   10.49042367008081
C         2.84722509060402    6.19472949531098    8.62068104128320
H         2.29371280929477    5.39943196429770    9.12854537449603
H         2.13803437748715    6.98213708375008    8.36301917548027
C         3.47027054541759    5.64031099838617    7.33861086123079
H         2.69694312064388    5.20782839556624    6.69885345643590
H         3.97813892187791    6.43030058305498    6.78134411345933
N         4.46560009269741    4.60778115333592    7.64820210024250
H         3.99645490449456    3.89766443784295    8.21903838769182
O         6.77024509194403    3.35018807545332    7.59415792504598
O         7.29354906642288    3.97663436842373    9.65419917074586
Cl        6.18623634685375    5.57569801431086    5.34213285040157
Ir        5.37599401691315    3.49753009100005    6.03161093388133

