73
CSD_code = GOTJOO | q = 0 | S = 0 | Stoichiometry = C40H30Cl2Zr | MND = 12
Zr       10.09661999834381    2.70615939946573    0.62078732581557
Cl        7.94136113134086    3.17056158916392    1.40391091529933
Cl        9.17406398060091    2.01759103218416   -1.41527659640367
C         9.51329239969786    0.31451633081435    1.26918639521734
C        11.32602019041395    4.63446172466469    1.46650764483455
C        11.52699094414162    4.73147921201335    2.92273322474175
C        10.49576462897756    4.31698869003243    3.77198941613348
C        10.64168159048308    4.42016729214610    5.14325764220277
C        11.81041648160823    4.93265537781493    5.68522771772901
C        12.83030369896378    5.35584084842856    4.84930654351573
C        12.69110927918644    5.26219074805071    3.47603628383540
C         9.21533833307804    6.13691625021713    1.36728479388719
C         7.91912122111057    6.17867858280575    0.84535263239232
C         6.97912709601655    7.04338770690889    1.37009310809979
C         9.75826797073942    1.00553749079899    2.47231309269668
C         7.31016903485792    7.88859617758259    2.41690464582000
C         8.59699665324660    7.87317989899484    2.92570171039117
C         9.54359634430786    7.01097917311469    2.40419485892546
C         9.62373249779987    5.67507155737037   -1.67679733101687
C         9.10180614320460    5.03003130816633   -2.79598556706334
C         8.45300412418814    5.75308597954765   -3.78111987454967
C         8.32182684384902    7.12688661551434   -3.67469195900268
C         8.85595664266062    7.78025439373800   -2.57638703883986
C         9.50457290580307    7.06437815108083   -1.58904819289298
C        12.01005095317805    3.66628020989842   -2.07969326399325
C        11.11151618436296    1.40490960985835    2.48273206455392
C        12.32858439742149    2.31150129472418   -2.19460021869080
C        12.74675784146416    1.79213329594426   -3.40478177590457
C        12.85235985172983    2.61298262560142   -4.51652354427290
C        12.54730074852002    3.95896928455694   -4.40904687259920
C        12.13066993655860    4.48622666164710   -3.20023948191226
C        13.57595622903399    3.59911935748935    0.66668547459555
C        14.05584936394906    3.03990119102226    1.85515601139175
C        15.38890861808802    2.70428838143942    1.99882529978541
C        16.28354259935485    2.91806101688051    0.96415088763027
C        15.83105973971058    3.49580819079971   -0.20977307978127
C        11.71225272443372    0.94187391976899    1.28148683836154
C        14.50089751896338    3.83998574027864   -0.35474371969117
C        10.71936160281886    0.26191737001796    0.54027157626494
C        12.17421057125660    4.01043273011347    0.48703901550963
C        11.53654662437015    4.18967571485726   -0.78843522875721
C        10.36198150673413    4.97307670615803   -0.60927393527575
C        10.22460491364872    5.24033623125430    0.78602458831767
H         9.57215757893881    3.92962254937583    3.34540936570471
H         9.84093440265875    4.09918188973865    5.79250137146635
H        11.92227834765647    5.00874589532833    6.75622162201784
H        13.73683912055540    5.76760541697302    5.26736200122320
H        13.48055474110862    5.60658975086580    2.82399829307367
H         7.64524009674825    5.52184139379853    0.03092581094099
H         5.98001676692050    7.05620121196685    0.96077936131394
H         8.58095995470471   -0.15876200668607    0.98712514460644
H         6.57123750352469    8.56023047242472    2.82798841726930
H         8.87038706163804    8.53964862778094    3.73079705511412
H        10.55073376090638    7.03057956941601    2.79257798353456
H         9.19284846671253    3.95993487893388   -2.89435013057355
H         8.04661441610445    5.23566819417334   -4.63758620031179
H         7.81156781717559    7.68667192700884   -4.44446084650624
H         8.77110540922008    8.85360263679851   -2.48926235352659
H         9.93287417121158    7.58284258912567   -0.74368750480458
H         9.05391013572274    1.12718612664142    3.28540708180845
H        12.23975953351403    1.66708189138564   -1.32343750375346
H        12.98471305846616    0.74179612489336   -3.48523160194118
H        13.17156056737334    2.20327953099213   -5.46293009568874
H        12.63303367411865    4.60404924442891   -5.27081341001858
H        11.90430395761772    5.53880722037401   -3.11729125479901
H        13.38637323084675    2.86818843406153    2.68285666740926
H        15.72864687456832    2.26963324895288    2.92746327515096
H        17.32264038685488    2.64847352119650    1.07639348036167
H        16.51995150728209    3.68989445582509   -1.01843919698622
H        11.62667081443081    1.80399499893399    3.34710552407677
H        14.17848397399259    4.31810332009849   -1.26600100380601
H        12.77494503823702    0.92870780330101    1.07041490776260
H        10.87240557097673   -0.29217598105061   -0.37817828744397

