49
CSD_code = GOTJOQ | q = 0 | S = 0 | Stoichiometry = C17H27ClIrNO2 | MND = 8
Ir        6.80766362206757    3.86120089096472   13.38576622130287
Cl        8.44446789467516    5.52257484835247   13.15932368510544
C         6.03837064124651    3.80585334573713   11.35161346042891
C         4.55928044783103    3.98062262039250   13.12614868622181
C         5.85677712314367    2.49913289145305   11.90218469877590
C         6.45274228754367    1.22337733353378   11.41263870745344
H         6.76488143027794    1.30940163777655   10.37529976083544
H         5.72981542878928    0.41431146350985   11.50061380134881
H         7.32657416770560    0.96766098060730   12.01395010609411
C         4.99034003993178    2.61254206599978   13.02946801482545
C         4.46856156708826    1.45229411065576   13.81269912971811
H         5.26461665726513    0.73592001979081   14.00457027924256
H         3.68378340213440    0.94457408801832   13.24879087456487
H         4.04805513148913    1.76826930135231   14.76423816387554
C         8.53488801068796    3.73466287629207   15.85837144969443
H         9.27456412086303    4.47850349017707   15.55138458866974
C         5.20777278327108    4.72977409119881   12.09877905704946
C         8.82617000733817    2.45344502256874   15.01192090141773
C         4.93873708384749    6.14663612332118   11.65634144516619
H         5.58467173648019    6.33824770791265   10.79471346004382
C         6.78031163973833    4.13127642935458   10.09474606723371
H         7.32935432071643    5.06414834903886   10.20180914012792
H         6.08136415488939    4.23246204293197    9.26254864830154
H         7.49567411573917    3.34817424253851    9.85944549123352
C         3.47834299680338    4.44410077075625   14.04883406302695
H         3.47696741880759    3.86780116271307   14.97189523310126
H         2.51034657641031    4.29578898396040   13.56688079995732
H         3.58012990111720    5.49622328045227   14.29645437327198
C         3.48615982460935    6.28845279512455   11.18779483261618
H         3.24134114674747    5.51598993650349   10.46189643668116
H         3.34603093505718    7.25898015321209   10.71805023900188
H         2.79436675303852    6.21125654080339   12.02150035631619
C         5.28660680381940    7.19731817959509   12.71272312742888
H         4.63733922417755    7.12882674548921   13.58158153662374
H         5.17476865169709    8.19166374792525   12.28671784681910
H         6.31879505832258    7.07059440506738   13.03029891672693
O         9.50977390432484    1.55975684908281   15.46147648081994
O         8.27900083507431    2.46193738314515   13.86029115080672
C         8.54037806543917    3.45220357924526   17.36575934959850
H         8.87953385620346    2.42604824570786   17.51877995682574
H         9.21753780280699    4.11493183278384   17.90077863802376
N         7.17332330825132    4.21003184448510   15.50973757957189
H         7.14742233194710    5.21772585521585   15.68250949842433
C         7.08502184893227    3.64641852487062   17.80829166799053
H         6.94578870295304    4.63375258854598   18.25247994964295
H         6.76338261363723    2.89814176129727   18.52886778783905
C         6.30744187607358    3.55114869238340   16.49475378372324
H         6.19507462829749    2.50351609686830   16.20626828724092
H         5.32798712068663    4.02722407129066   16.53611226919030

