53
CSD_code = GOTLOQ | q = 0 | S = 0 | Stoichiometry = C24H16N10PtS2 | MND = 4
Pt       -3.40297943734696    4.23130710712042    9.91693819660907
S        -5.41167251537448    4.82567076823634   10.91651249239529
S        -3.90448448025401    2.19309470001869    8.92610929367449
N        -5.82282581687586    7.39158967281303   11.36292077344257
H        -5.54751843724993    8.30454196322994   11.68182656422307
H        -6.77143097730570    7.08907041939044   11.50043384997614
N        -3.61517415180880    6.81212106766988   11.21478375662707
N        -2.74136744351615    5.82079724008709   11.00780289139858
N         1.57318121584191    7.89589779754508   11.52211149464831
N         1.90196419831673    4.81543444608772   11.60815226406779
N        -1.89535323496379    0.54625080622187    8.47482333109780
H        -0.96961702082542    0.32442255991283    8.15108230501407
H        -2.63453383933985   -0.12194195622070    8.34275757064392
N        -1.28583636925132    2.74654898418971    8.61204588899657
N        -1.70246975450117    4.00091324895608    8.81719192243553
N         2.25709295396769    6.68626694584966    8.27221892517373
N        -0.24123152505321    8.51847370390874    8.19441856801367
C        -4.87444579916720    6.45751017514643   11.16623104811879
C        -1.47972819729837    6.01265641904818   11.28696048014096
C         1.16765468058941    9.15556767783191   11.49628300166079
H         1.95832016798485    9.89266761004965   11.52239717073437
C        -0.16549908931766    9.54764899256852   11.44173523725369
H        -0.41861500077701   10.59612232759619   11.41911243323370
C        -1.16264495488938    8.58282974526365   11.42289026035190
H        -2.21106517810512    8.83807972123926   11.38952289285718
C        -0.75451454167822    7.25984215806075   11.44570584484875
C         0.63616726931420    6.97345734280569   11.48780344462801
C         0.79817707541323    5.52297913720063   11.48581162412902
C        -0.49478370892046    4.95065892580095   11.37853118433019
C        -0.63240275985693    3.57618754170333   11.48947448120789
H        -1.61191217786692    3.10050124058635   11.51896407817551
C         0.53737960665569    2.83709578780522   11.60008389718699
H         0.50077522588678    1.76158414403506   11.67689918205543
C         1.76044388538346    3.49804047649593   11.63661547763975
H         2.68379941985647    2.94070729578109   11.72081746404375
C        -2.22509868683705    1.83636664096785    8.66871155276147
C        -0.90402396626006    4.99424458780908    8.53038972859470
C         3.14243952805234    5.70266434508617    8.29618431694186
H         4.17689339523713    6.01566865902145    8.26326800192496
C         2.81169966110481    4.35324711359257    8.35688880833545
H         3.59104544350400    3.60754336515478    8.37749406857489
C         1.47656154070054    3.97616771940812    8.38443725758424
H         1.17052179257487    2.94160387263379    8.42279197744332
C         0.53779378828356    4.99385472755027    8.36365098377126
C         0.98890358642075    6.33992495081080    8.31475234021862
C        -0.18361547360266    7.20900506799118    8.32052221113849
C        -1.32761835308838    6.37921630287568    8.43676606367317
C        -2.58564763917553    6.95069705099031    8.33095063194131
H        -3.48933019494734    6.34287388098143    8.30831493861530
C        -2.63730088121532    8.33311246876384    8.21628653931905
H        -3.58591135900986    8.84178522191201    8.14305240785339
C        -1.45141652570776    9.05816140105407    8.17097325651848
H        -1.46964494364378   10.13626642947740    8.08349562375889

