94
CSD_code = GOTLAC | q = 0 | S = 0 | Stoichiometry = C42H41B9IrP | MND = 11
Ir       -0.41887673508291    5.95959382086251   24.81689062540935
B        -0.93128731060822    7.95632346469470   25.08402454896105
H        -1.94572828903092    8.21076826483653   25.62330504386449
B        -0.63637923368698    7.76317644128381   23.39731445533612
H        -1.59810095334218    7.91588503276845   22.72766571250909
B         0.24371793937111    8.99704380475208   24.46010943349639
H         0.03253744571226   10.15209664132393   24.57979297552328
B         0.64486878768020    7.75140201914434   25.76211901037124
H         0.68978470569561    7.89485486563481   26.93558889251734
B         0.55142218757495    6.61105171299546   22.95337761435004
H         0.35880369799702    5.85519702709820   22.05926632277263
B         1.01560522998913    8.35738793764849   23.00129949172934
H         1.18138437031395    9.06966948055155   22.07258782596030
B         1.88181417587528    8.34402973409669   24.58789910697514
H         2.78092107188699    9.02507522909149   24.94170812695941
B         1.65569314092237    6.60999919697827   24.98633193205264
H         2.30548138731786    5.82274801650786   25.59530690136897
B         2.07590987272720    7.06990137062615   23.43524038420175
P         3.64467389364209    6.39273231619557   22.69126569463378
C         3.75358764650609    4.60355163951346   23.05786343073632
C         2.88325083008326    3.76363258774999   22.36697736549134
H         2.22960084203893    4.17998501427085   21.61334407288049
C         2.85333292776988    2.40894564403889   22.63828553460352
H         2.18615461573027    1.76526463389663   22.08246769936230
C         3.67765515033131    1.88001753055962   23.61956534367735
H         3.65487554320057    0.82196285367834   23.83491785040700
C         4.52971054925177    2.71248017752370   24.32485823556446
H         5.16686731938291    2.30479661518018   25.09543308921898
C         4.57037065451399    4.06738239922750   24.04546141850950
H         5.24702076020359    4.70756509900035   24.59214015176083
C         3.84816611903996    6.37203979456912   20.87397327659557
C         4.75532687145464    5.51119330408055   20.26102904273815
H         5.35263368413919    4.84302001985170   20.86706836908261
C         4.89022423883189    5.50839252144218   18.88498053959971
H         5.59730256318304    4.84077200390350   18.41433462567697
C         4.11882181633032    6.36063850258988   18.11010278253470
H         4.22594877379811    6.35584283192558   17.03546079283210
C         3.20953288364801    7.21291120579288   18.71438764326232
H         2.60456129949908    7.87284787846141   18.11074620106768
C         3.07347936754586    7.21946136771871   20.09218406328602
H         2.36109878755059    7.87197378895885   20.57415296646973
C         5.21499908083216    7.07952250646215   23.32099389867855
C         6.25586602740519    7.48967294314105   22.49583244960475
H         6.17449096172253    7.37570045704586   21.42454943432874
C         7.39895949243324    8.04755766687307   23.04188057323485
H         8.20395597263237    8.36149078029972   22.39356135064604
C         7.51173797107375    8.20581762193749   24.41275414943236
H         8.40592529836302    8.63952365564023   24.83504615122952
C         6.46944798367305    7.81693855924445   25.23996456752119
H         6.54941216960696    7.95116351489801   26.30849014992562
C         5.32391671598137    7.26479161792244   24.69848895516829
H         4.49762258316297    6.98484756986722   25.33521726827025
C        -1.23617352992079    3.77048908720246   23.85898597569273
C        -2.23920118124227    4.50240554864914   24.52034571663473
H        -3.14667850953379    4.75499260145705   23.99141073378588
C        -2.13028701547652    4.80675069620843   25.89263650804151
C        -0.95794543130845    4.42351429938778   26.57443592535198
H        -0.89111107317031    4.58688358011999   27.64043693681057
C         0.04736135655894    3.68303348741263   25.93034892251164
C        -0.10447887115862    3.36345594185275   24.57685658069886
H         0.68465547335190    2.83046158084907   24.06970942920686
C        -1.37891499830791    3.42356377750891   22.44099864385722
C        -0.94480216831046    2.18695511598749   21.96564351049332
H        -0.53163359900843    1.46403665619327   22.65511768814626
C        -1.06509157329927    1.86398778327454   20.62752308440186
H        -0.72923106781854    0.89879000826584   20.27530860415294
C        -1.61889960091370    2.77109171728203   19.73939317627014
H        -1.70965838669111    2.51874231042271   18.69316801427458
C        -2.05675505500393    4.00144183162651   20.20147319363058
H        -2.48567836065885    4.71480231563486   19.51321995554486
C        -1.94132464645244    4.32694532931717   21.53938679782812
H        -2.25809425757767    5.29902465547017   21.88474568172654
C        -3.23589503876014    5.43992929263903   26.62146752481299
C        -4.55915011052402    5.10887170489218   26.33621141196108
H        -4.77689890289234    4.36857162801756   25.57939516516931
C        -5.59808262942851    5.69873458303392   27.03115197013364
H        -6.61854335603214    5.42795600546454   26.80108055174976
C        -5.33441162224440    6.63105620964449   28.02025495187866
H        -6.14741819371257    7.09299575777456   28.56052657538387
C        -4.02254036019824    6.96836961812781   28.31101441259607
H        -3.81057712297329    7.70030915833736   29.07640655322759
C        -2.98151860997253    6.37821473837223   27.62140348653184
H        -1.96439398015361    6.66838208400406   27.83332402449825
C         1.23298685401912    3.23770188807205   26.66968000130040
C         1.82314036301248    4.05746957316683   27.63155336619472
H         1.41145250715331    5.03598188651273   27.82612321205400
C         2.95133811816691    3.64095567171762   28.31154508244830
H         3.40420200842956    4.29167061614055   29.04540808226172
C         3.50320354377484    2.39652714532791   28.05587820667343
H         4.38309069110489    2.07140040181446   28.59162442217718
C         2.91669762958283    1.56894467516735   27.11334119636458
H         3.33369676665894    0.59123371138921   26.91786525629108
C         1.79568836431684    1.98691548246635   26.42264058017571
H         1.33657269080168    1.32679915939149   25.70075134442672

