115
CSD_code = GOTQAJ | q = 0 | S = 0 | Stoichiometry = C46H60FeN4O4 | MND = 5
Fe       -0.55184556180826    9.73041759102362   13.39162657525429
O        -1.36566075563259   11.39772359518615   12.85171261965976
O        -5.83459125827234   14.61500680034098   12.99587867129196
O         0.61563674217153    9.08420439044680   12.15209163614641
O         5.41269265164804   10.61731784303413    9.93641786736553
N        -2.57833614312790    8.81414228754525   15.05749269005623
N        -0.96471951919772   10.14906818397669   16.13071464951037
N        -2.03392736033323    8.32115241510079   12.93218151308571
N         0.83508232023679   10.56799728508716   14.84123924541309
C        -1.43233638705848    9.57020558333530   14.97771224833166
C        -3.40808864372364    8.75549409394472   16.24564504507627
H        -3.13955550561317    7.87556252060459   16.84611952887930
H        -4.45838543677230    8.66957379849295   15.95985877687332
C        -3.19540596020223   10.02691858956090   17.05663446542435
H        -3.77532064353465    9.98768370237895   17.97844319340724
H        -3.52271926854148   10.88834944987513   16.47107713211921
C        -1.71361259824133   10.17200603710367   17.37208651757090
H        -1.53762082522983   11.11570573730302   17.89259382960665
H        -1.38496975726926    9.35089800117474   18.02451685055237
C        -2.89133556339909    8.17695581801298   13.89045900806431
C        -4.15730422567083    7.37965050028152   13.79295027883591
H        -4.16234983646572    6.83774115518317   12.85049115603962
H        -5.02552542521585    8.03911070500505   13.81224054022029
H        -4.24011346731735    6.66923857215576   14.61396632172023
C        -2.16406974375514    7.63735110283571   11.71136193223723
C        -2.86368411880468    8.20545355670826   10.63958909521036
C        -2.95881400863090    7.49455677590527    9.45225408161199
H        -3.49335131853484    7.92254163149747    8.61780407335610
C        -2.38487612933427    6.24449397515945    9.32237291337215
H        -2.48026279238817    5.69722313153229    8.39591245911054
C        -1.67421704721146    5.70323576404663   10.37700395540842
H        -1.21506485889550    4.73285282259796   10.26305859531469
C        -1.54125726403241    6.38841393451764   11.57496508032888
C        -3.45450062700382    9.58803133255839   10.75509112119190
H        -3.36972288429416    9.91373411950430   11.79369001694870
C        -4.93168110958643    9.62895445761329   10.36226897019652
H        -5.34190015440941   10.61078307087504   10.58855236807876
H        -5.49850423464882    8.88191339183909   10.91524317061713
H        -5.06401184408487    9.44080040996992    9.29957744831489
C        -2.62977182178562   10.55750779797904    9.90703543495497
H        -3.01839099967689   11.56796787957910   10.01314445859909
H        -2.65389355685556   10.27623725863734    8.85615884096870
H        -1.59834798885072   10.54514593793717   10.25244534353879
C        -0.73287097341194    5.80088573568817   12.70814761390691
H        -0.63880467021924    6.56678972385226   13.48650968419036
C        -1.43087417292284    4.57476047973696   13.30149416760015
H        -0.84994868378014    4.17399598620885   14.12985610928463
H        -1.53867144442128    3.79552989244032   12.55035141851284
H        -2.42224651884010    4.83392196012666   13.66718609830206
C         0.67861674779410    5.45003060389699   12.23725855560830
H         1.29379950995179    5.15436135130776   13.08489224392214
H         1.12681693776958    6.31893060474373   11.76385292836434
H         0.66700918754960    4.63142439925674   11.52197136906777
C         0.28007469124400   10.69447596901798   16.00263692491665
C         0.91363605125792   11.35110410408441   17.19772792137358
H         1.92654720826794   11.65336609803552   16.94358893190353
H         0.95089030094315   10.66977821063335   18.04735069253089
H         0.35278526501940   12.23633724351704   17.49804289752585
C         2.18238083345546   10.87204465023701   14.60043930531740
C         2.52983377905179   12.00401974288550   13.84776009731315
C         3.86299160712427   12.19089496841212   13.51670948213079
H         4.15897455521736   13.05512052876004   12.94464532135860
C         4.82787811533353   11.27826939358178   13.89727112928990
H         5.85660407331013   11.42511692752073   13.60394614671802
C         4.47866856327971   10.18056813304142   14.65966002246554
H         5.24555013500687    9.48340162182420   14.95691509324650
C         3.16456540998786    9.96834969271290   15.04521679902598
C         1.45656521675881   12.98731061077201   13.44017078044548
H         0.58197654167732   12.40022900341639   13.14081910900838
C         1.86083067367474   13.89302267741320   12.27885887276773
H         0.98761415060664   14.43656286321811   11.92373385891979
H         2.26174393599639   13.31027676677559   11.45626730818719
H         2.60311990393379   14.62596130938952   12.59178797058380
C         1.04932945025005   13.86746971506092   14.62774133227998
H         0.33188695962819   14.61685351588791   14.30047192799407
H         1.91851466831811   14.37581076896661   15.04386775486969
H         0.58158431926994   13.27538509781877   15.40598119376849
C         2.78628877645518    8.78292701008802   15.91135475606529
H         1.91495270793948    9.06090954506812   16.50992407790584
C         3.89359954018566    8.37728542112746   16.88584854140218
H         3.50318634391783    7.66331532800570   17.60904510570518
H         4.27091833172513    9.24333580320496   17.42536216125148
H         4.72207669275503    7.90273110430255   16.36708650081393
C         2.37361655740660    7.59051713285973   15.04621450753206
H         2.02124309496810    6.77380422020682   15.67473572652895
H         3.22286804539554    7.23778486009781   14.46658902121723
H         1.57211210325575    7.88355010253880   14.36753568678160
C        -2.42447177910768   12.15326039111229   12.88845956305452
C        -3.61348186690194   11.79717055570782   13.55306377689646
H        -3.65844243749209   10.84066505848028   14.05069058931481
C        -4.70794472092202   12.63258864263202   13.57005992598380
H        -5.61476948854849   12.34644774132154   14.08295329292481
C        -4.67950064643076   13.86252270788814   12.91914461226300
C        -3.52022830996869   14.23620815379248   12.25261130869879
H        -3.45724264644866   15.18007930201526   11.73188656031070
C        -2.41906789051742   13.40327179800537   12.24337494856292
H        -1.52526047495498   13.69779863980878   11.71399959939844
C        -5.85072030522381   15.85528127695545   12.34325852260008
H        -5.09407565548495   16.53721397846267   12.74830756961550
H        -6.84086142680868   16.27336262622489   12.52227989941094
H        -5.69581180814362   15.74805654723074   11.26347456918460
C         1.76900500395828    9.46835211333769   11.65075330689816
C         1.84668361996985   10.64467312651417   10.89319197306039
H         0.94321257864491   11.22564121648850   10.77588469629597
C         3.02385893437712   11.04335576761004   10.29110339559637
H         3.02601597859821   11.94217379945904    9.69208964414196
C         4.18126641900292   10.29393405715419   10.45381432911400
C         4.11689409933257    9.11105614193484   11.18683927541674
H         5.01678216428732    8.52456209292075   11.29075290521064
C         2.93742732079296    8.69589144575830   11.75908403095900
H         2.90495278686343    7.76806077302211   12.30603444071517
C         5.53785697902746   11.83287493201913    9.24739694468052
H         4.92459650467310   11.85072432221324    8.33931719479041
H         6.58838527589065   11.91083301042652    8.96934595149178
H         5.26794220077943   12.68539589633493    9.88072030561748

