31
CSD_code = GOTQIR | q = -1 | S = 0 | Stoichiometry = C14H6MnN2O8(1-) | MND = 6
Mn        8.56557139401733    1.94126113707868    3.10921856365077
C         7.92024888220253    1.18248883921222    0.56371837721280
C         7.99173446205963    1.19219983611689   -0.81913935310737
H         7.33929785268136    0.54533332037441   -1.38475456722075
C         8.90549114101675    2.04096417000132   -1.43451944468484
H         8.98146253793367    2.06962807240141   -2.51162977552315
C         9.71939952347434    2.85402348183996   -0.65318505659710
H        10.44087532257589    3.52901298269939   -1.08667237407463
C         9.59428765912368    2.79234700999105    0.72448974375203
C         7.01409687040372    0.36299150689208    1.46768390282147
C        10.35117356109361    3.57093481797888    1.78768226069232
C         7.56429831703188    2.76548648309478    5.51473924892176
C         7.43107840812593    2.78765319623456    6.89285441481283
H         6.73527229932917    3.47816883131633    7.34349631586383
C         8.20337714729889    1.91544391861023    7.65231814019903
H         8.11991186483577    1.91204844107263    8.72924013594120
C         9.08469793495227    1.04851562819821    7.01530392113560
H         9.70389930337292    0.35572407921658    7.56362323793328
C         9.16662616747906    1.08072983565357    5.63334839006778
C         6.84730400936034    3.60786457014411    4.47282087633888
C        10.04150114191246    0.25064854380620    4.70837244873429
N         8.71080108261513    1.97002552202230    1.30194303764948
N         8.41652703650668    1.92533602620199    4.91631844102518
O         7.21462765778418    0.62750459515855    2.71773394552061
O         9.95892697728276    3.26246297301270    2.98087603673564
O         7.23066588161529    3.31755097014328    3.27221580332076
O         9.85759183332638    0.55985489711469    3.46603316164913
O         6.20814133828129   -0.43527423225439    1.02907004652259
O        11.21549557165867    4.37997621528896    1.50919058942261
O         6.01814779763618    4.44566035041374    4.77242641836253
O        10.81106902301715   -0.59356601903687    5.12578311292208

