31
CSD_code = GOTQUD | q = -1 | S = 0 | Stoichiometry = C14H6MnN2O8(1-) | MND = 6
Mn        2.92226573923916    9.61785114747906    2.86842142280500
C         2.23003561571943   10.34058618821098    0.32528039008315
C         2.22497878055608   10.26662696320226   -1.05744088144962
H         1.61609270334408   10.95750271215789   -1.61955254604274
C         3.00757093759925    9.29828913360813   -1.67709539561582
H         3.02129495042973    9.21743646755751   -2.75413462361291
C         3.77005630281624    8.43304182270041   -0.89994292458945
H         4.38978666792210    7.66555483583578   -1.33683460270533
C         3.72630950081732    8.56359800307813    0.47795797073328
C         1.46797438375403   11.29162893672322    1.23330265969549
C         4.44867853258398    7.74857641852111    1.53804483966642
C         3.73423671576602   10.51503873249255    5.31955930907840
C         3.71407752939262   10.62678232853930    6.69963545448735
H         4.43080789193145   11.26954997309867    7.18663865417500
C         2.76562982079487    9.90306383750275    7.41432225607932
H         2.72727889381204    9.97171418901852    8.49162098517036
C         1.86657721530202    9.09060336652339    6.73200810808382
H         1.11366653625111    8.51206326734714    7.24429974086325
C         1.94467554594861    9.02624830918125    5.35098798208510
C         4.65516703340763   11.19406359846736    4.31915958139628
C         1.09032177503474    8.22480196870404    4.38295696492504
N         2.96930622281605    9.50112164746187    1.05943397056388
N         2.86312577522238    9.72833177048042    4.67736683277209
O         1.70620521585401   11.05857741757658    2.48298676064637
O         4.15136679434122    8.14247677404310    2.73351873784108
O         4.37745270877165   10.85513403302173    3.10222487193413
O         1.45070763928245    8.41097894557543    3.15497291731334
O         0.73148741613567   12.15606448496511    0.79798189328059
O         5.20650168351934    6.84031215783718    1.25531661578942
O         5.53658409169862   11.95872724553586    4.66194616606255
O         0.18387937993573    7.50575332355314    4.75775588848566

