43
CSD_code = GOTSIR | q = 0 | S = 0 | Stoichiometry = C16H16N6NiS4 | MND = 6
Ni        3.60326915172558    0.23113948577334    0.05413263273511
S         2.64160124540437   -1.69834175908637   -1.24148812635089
S         4.32973684155902   -4.16438362141328   -1.49990946601577
S         4.61833289088211    1.37028878493212   -1.94323244918858
S         2.95951383259795    3.44062203111883   -3.34300203572687
N         4.80212273034475    1.52707404975447    1.37541047203009
N         4.99091759137839   -0.90183286068383    0.33476253941987
N         5.05744003210847   -2.11597705698322   -0.15729885702649
N         2.35545628240330   -0.33523023583563    1.78064260095306
N         2.21645980849182    1.35876473773905   -0.25077963920126
N         2.17412020236203    2.21797698810775   -1.24116360050872
C         4.69499563790298    2.76543415312660    1.82401091544066
H         3.76120444682785    3.27292464013368    1.61645454369389
C         5.70471891662946    3.40464428568581    2.52600127678261
H         5.56892077262445    4.41589482757627    2.87399330854948
C         6.88577762746342    2.71347369237187    2.76922837160262
H         7.69236087499793    3.18226351813211    3.31340286567043
C         7.01326542701315    1.42241300217630    2.30191523097820
H         7.91598340654122    0.85385918072894    2.46103338521028
C         5.94792397329834    0.84715762496063    1.59800285097413
C         5.99372655142269   -0.47617207340015    1.05542406946709
H         6.85118006804014   -1.12057260970990    1.21079305240536
C         4.06062903735813   -2.55127225216562   -0.89396530233040
C         2.83612314137949   -4.43535661990217   -2.49109094351400
H         2.93035537747925   -5.42613436823392   -2.92258919625431
H         1.96224591774534   -4.37476281346365   -1.84959259483475
H         2.78240257910649   -3.67991512565236   -3.26905589392047
C         2.43993710758406   -1.23574016302953    2.74406529944441
H         3.37479938080051   -1.77754068023457    2.81522837692614
C         1.40608079894220   -1.49276637702735    3.63064321632756
H         1.52387363849377   -2.23614487772098    4.40244486576149
C         0.22464931213122   -0.77218795204209    3.50125984625048
H        -0.60031011895726   -0.94757558774487    4.17590533158615
C         0.12066569424812    0.16650062558362    2.49649855934162
H        -0.78129994234077    0.74099795466603    2.35547853687292
C         1.20959726055552    0.36589715652092    1.63870877808123
C         1.18982173571790    1.29971824325494    0.55459853670862
H         0.33344352292659    1.93954457976176    0.37611414525609
C         3.19629911024821    2.27888798799015   -2.06405052920408
C         4.48579212514302    3.24358217861095   -4.30135817353656
H         4.41256981013915    3.92948272457168   -5.13854590631275
H         5.33840876382806    3.48791994627291   -3.67509075942168
H         4.55868743545900    2.21764463477717   -4.64914013511466

