60
CSD_code = GOTTOY | q = 0 | S = 0 | Stoichiometry = C24H28MnN3O4 | MND = 5
Mn        7.80694855844094    1.90289573588649    2.42440471671031
O         8.41072321838184    1.19580381078543    4.07455923505815
O        11.85158940816808    3.00110562716741    2.52658078438552
O         7.86859207917828    1.33805761631420    0.61755578035992
O         4.57798214368639   -0.75466158526608    2.13001893408526
N         9.69298781650095    2.58040383997655    2.14201393413956
N         7.10001240221569    3.25419602740493    2.59088431921572
N         6.20016383097864    0.69164701821442    2.64106528120593
C         9.45337054344371    1.41208591848849    4.81067727682735
C         9.47377779769422    0.93095910079318    6.13989937525929
H         8.59024926973381    0.42713380436104    6.50424649312764
C        10.57008724497182    1.10519138298845    6.94582005810899
H        10.55124576577083    0.73251696969879    7.96004698403040
C        11.70764009102113    1.76008813524500    6.47338677791986
H        12.56232765994900    1.89317757526898    7.11829723703385
C        11.72926188055891    2.23349710514547    5.18444294694111
H        12.59785885960185    2.74399958499703    4.79698196415168
C        10.62208176462079    2.07281007174694    4.34165026363253
C        10.67221141788186    2.55175251616863    2.98702880821505
C        11.66738909480939    3.40538471828353    1.17531896344738
H        12.33078705719664    2.80803908999811    0.54276455471675
H        11.94878939342542    4.45759101304869    1.09102425408879
C        10.17415589674132    3.15220650134132    0.88685740900701
H        10.04510256362270    2.40248431678532    0.09674466488574
C         7.01964790995754    0.75152607251450   -0.16412628412872
C         7.26584449352142    0.72308993091002   -1.55600302874030
H         8.14691248608586    1.23167077129632   -1.91970339740409
C         6.41315667963616    0.08318550067946   -2.41925478492358
H         6.62538511111378    0.08627599118391   -3.47890009145068
C         5.27405969388224   -0.56883575167201   -1.94656210254631
H         4.60986237433234   -1.06604190320154   -2.63630255667344
C         5.00593497939750   -0.57111159686346   -0.59969210771166
H         4.13037521015984   -1.06835170176361   -0.21065883635476
C         5.85760405652934    0.07798962978340    0.30324879591096
C         5.57535659505169    0.04270123253545    1.71249825268930
C         4.49099914184628   -0.64054114102370    3.54518199942007
H         4.65702626930263   -1.62974963351533    3.98214551866896
H         3.48353709916492   -0.30404349327686    3.80057576030806
C         5.58497154633509    0.37622012676434    3.92790688953440
H         6.34691878558454   -0.08439913550584    4.56845246269018
C         9.35915830759916    4.39738166242793    0.48699410151946
H         8.32091940663101    4.05194425151755    0.39591307386831
C         9.38772488624006    5.47572977463438    1.56668789132172
H         8.77334283767379    6.31600462760523    1.25659892291391
H        10.39555801465777    5.84183398884133    1.75263332263080
H         8.96991857105982    5.07127941727996    2.48771761683941
C         9.83519918166415    4.93189098907882   -0.86115544466836
H         9.19865251364807    5.75398333906292   -1.17654669730253
H         9.79127047753792    4.15579121768786   -1.62166372621457
H        10.85859857998417    5.29752797406812   -0.80241711491856
C         5.08380376373061    1.64819078436132    4.63886590171864
H         5.97092827017939    2.28262967832038    4.76558656662007
C         4.51137203591191    1.29827409117300    6.00989217175376
H         4.24219631944139    2.20807436634927    6.53933127424161
H         5.24288108574398    0.75981057070656    6.60787937999442
H         3.61972806276056    0.68070056906500    5.92011480402445
C         4.08388886164670    2.42729047062709    3.78883603488934
H         4.56020280373514    2.71986713166678    2.85397638861756
H         3.78672846218233    3.33012040359122    4.31445572182547
H         3.18799936745878    1.84712389825233    3.57642230447901

