119
CSD_code = GOTWET | q = 0 | S = 0 | Stoichiometry = C40H69N3O3Si3Zr | MND = 4
Zr       18.00862560865944   12.21244680130242   13.47008236587605
Si       17.50263193859189   15.27605000782981   12.65965607893044
Si       20.92551570388983   10.97774250049570   14.28971023744546
Si       15.37489132697669   10.31873309061570   13.76029132250373
N        18.45615790113250   14.31190156523989   13.69914586363050
N        19.25098956857495   10.91455376328277   14.63052023726169
N        15.94567719867118   11.88832178203582   14.11515348963196
O        16.63187355950501   13.98538800426206   12.06286862929041
O        20.82197926923099   12.33211705580571   13.33429084788176
O        16.81128123920784    9.81970797584012   13.06541499257556
C        18.44545403824467   16.20970498226806   11.25539529617288
H        18.80078145503478   15.53152223135953   10.48504192088808
H        19.31533617246701   16.72638085688432   11.64748619754684
H        17.82537502327123   16.95951385179607   10.77440249439180
C        16.40572782556267   16.59330084891010   13.52812388000100
H        15.86014770140620   17.21531085454393   12.82418021657505
H        17.02075025684010   17.25516404119873   14.12882008101763
H        15.68608756199802   16.13042686761397   14.19732395149330
C        21.74175333122163    9.49423028213194   13.35527530032678
H        21.45414786260203    9.45550339072097   12.30915361497218
H        21.46162465814269    8.54437383505020   13.79907869492991
H        22.82568905387268    9.54374738758491   13.39432508794102
C        21.97884058935648   11.17895407101754   15.88374338884515
H        23.04285074456850   11.04944251669041   15.70713826228110
H        21.67959696234951   10.42719048697007   16.60811775121499
H        21.83012258098135   12.15013554331412   16.34519863945453
C        13.88873794311738   10.14032958656438   12.52889268261528
H        14.18325181820709   10.16765111306656   11.48570373856926
H        13.16848921613620   10.93904660180785   12.67364636894783
H        13.35672895031296    9.20666013049495   12.69147317198216
C        14.80527467650040    9.34016599044341   15.31521724793686
H        14.09018900243758    8.55627841471757   15.08170824366660
H        14.31543862141000   10.02238749142799   16.00319431631001
H        15.63411045375884    8.89139113730462   15.85113599998880
C        18.57583462454847   11.77322162942773   11.33342061672749
H        17.89812383317169   11.08586121094910   10.81032752354290
H        19.58290498111431   11.33841440697140   11.27699272904315
H        18.59602546234242   12.70652845683061   10.75196397176874
C        15.50539353937108   14.00971554947787   11.19549552400719
C        15.60308809160122   15.11337788341996   10.14207696821433
H        15.55323797878962   16.09181177855830   10.60799857285860
H        14.77797095688090   15.01915521107760    9.44022047784411
H        16.53757157186170   15.03049952063988    9.59605390832281
C        15.46559166212265   12.64587257284875   10.49716407065318
H        16.24435861205725   12.59007428482695    9.74001000036698
H        14.50110119225604   12.48853758025282   10.02075423625379
H        15.64045089700133   11.87646587838190   11.24880064001460
C        14.23176401544526   14.20512088643260   12.02231575239986
H        14.16637480302958   13.42948998287148   12.77875619697382
H        13.35413866348993   14.15881518228902   11.38253426291027
H        14.25179081310961   15.16911087586097   12.52079066494773
C        19.22056685161347   14.81201714649209   14.71793134812466
C        19.68477262548487   16.13599771546214   14.76654910691172
H        19.45206187075970   16.79811305274352   13.94765440957668
C        20.43197549139421   16.60121801962265   15.83035351394773
H        20.77295660811811   17.62781741273884   15.82338055111599
C        20.75088039779580   15.78298263540707   16.90549328439338
C        20.29583502357346   14.46841248761999   16.87123965402473
H        20.52157528095253   13.81163768915669   17.70105984999566
C        19.55572082585898   13.98727753539542   15.81082863901483
H        19.23225603507228   12.94779960141337   15.80212251285811
C        21.87914141038251   13.09696485312503   12.76965238911101
C        21.23936476022646   14.04098364806062   11.74758724918835
H        20.88818076181468   13.47694167743823   10.88748817071107
H        21.95813325991264   14.78462509949355   11.41304075602148
H        20.39194707928151   14.53466070806746   12.21400109820990
C        22.90920167854008   12.21288574555922   12.06449403477725
H        23.46909547128767   11.62843623055294   12.78666489022623
H        23.60381924614513   12.83571457925048   11.50629780579797
H        22.41251110567483   11.53769583951781   11.37429318216481
C        22.57648489029519   13.91813542067393   13.85733852060200
H        21.84988140570485   14.53440139971665   14.37723154413439
H        23.33216642899658   14.56060683403519   13.41230350243822
H        23.05555131044824   13.26116823279636   14.57536723636747
C        18.74445115217120   10.19002160816101   15.68126288766402
C        17.70557187730714   10.71950630727143   16.46973928513023
H        17.30011929751914   11.69996148169265   16.23402535291114
C        17.20447204664280   10.02827838475262   17.55382822528837
H        16.41281071553718   10.47232560821246   18.14193609184551
C        17.69571535682147    8.77606234985307   17.90993082975986
C        18.72436142642884    8.24737554126142   17.14233180417680
H        19.13445408939643    7.27860830261860   17.39549172930320
C        19.24263428556288    8.93495425466975   16.06251299455666
H        20.05244796512845    8.50387456713111   15.49481901663460
C        17.11673415406993    8.51535306029049   12.58120270316725
C        16.30545915661435    8.20168357089390   11.32032306579237
H        15.26131511989535    8.03878986426993   11.56540412106758
H        16.69670546784698    7.30565820020934   10.84506698197050
H        16.37768260107332    9.03055898860875   10.61999976914676
C        16.84511456728074    7.45417728955448   13.64821629756201
H        17.37367780335220    7.71453461720816   14.56170076501735
H        17.19187580194717    6.48336636304365   13.30272506565498
H        15.78359366309263    7.38730637463429   13.85895624308303
C        18.61111770145959    8.50363253432745   12.24540614702223
H        18.80211683178301    9.05498736271481   11.32983476198552
H        18.96570371685712    7.48351464669375   12.12023661359558
H        19.14604747113690    8.98028817531010   13.06131814840016
C        15.26010472243909   12.73964458946321   14.94114516917064
C        15.93598989077023   13.78504800351052   15.59750234471484
H        16.99983173486135   13.91531126459079   15.42556855957202
C        15.27717094183078   14.65686019339660   16.44215738767434
H        15.84033331095040   15.44375136283426   16.92645132706864
C        13.91371038179107   14.54328268039573   16.68376536226083
C        13.23530461530888   13.51188597592075   16.04634981746694
H        12.17306939327614   13.39285543206654   16.21361107015854
C        13.88310655366828   12.63284690895896   15.20381397397098
H        13.32026864725360   11.84582683595839   14.72835766306530
C        13.20616908168399   15.48211428726790   17.61607083217856
H        12.16373038073657   15.60096402268896   17.32771268590019
H        13.68450623677092   16.45939011684883   17.61708804800142
H        13.23061212739099   15.09518343618566   18.63614958674464
C        17.12158176085615    8.03207406111776   19.07946523343270
H        17.11819640836549    8.65984586122315   19.96953767595527
H        17.69863966055041    7.13454982469031   19.28889746490823
H        16.09101739773637    7.73906206494194   18.87639453840527
C        21.55430450867784   16.28508312207520   18.06885760693089
H        22.44544170580679   15.67423102506298   18.21231960575792
H        20.96848488980704   16.23833643514522   18.98699638763561
H        21.86331204838073   17.31539152593390   17.90955877893715

