116
CSD_code = GOTWOD | q = 0 | S = 0 | Stoichiometry = C39H66ClN3O3Si3Zr | MND = 5
Zr        8.39826647830002   -0.29052176329031    4.01012879375730
Cl        8.08180901855760    0.19161705236295    1.69610335772449
Si        8.95751257022815   -3.34180949352151    3.70249656674549
Si        5.56935028743280    0.61908519138246    4.95054014810732
Si       10.82739061110936    1.65862982844171    4.36088325051008
O         9.63669119128565   -2.13793370500186    2.76218040425438
O         5.86954512381952   -0.36618311989607    3.63295866049234
O         9.38872556841661    2.06665867530547    3.61866697769119
N         7.95717586242698   -2.27878246188043    4.57544024565407
N         7.21420955380616    0.88591681406423    5.29474584807522
N        10.38684720150655    0.03504373276825    4.61528755000499
C         8.05009538345586   -4.71268237172863    2.69303721949250
H         7.44497261872168   -4.32387354914442    1.88027477827191
H         7.39118616515153   -5.26439809232751    3.35674566377583
H         8.74661659228277   -5.43214058311937    2.27237887864160
C        10.19893763481712   -4.30875390918670    4.80406723090080
H        10.70809637740724   -5.11070553125882    4.27981740763815
H         9.64845724197251   -4.75972849600355    5.62434020965441
H        10.95319709002823   -3.66054655811585    5.23950344235524
C         4.59040542227509   -0.21183248106714    6.37849602004730
H         3.51703711671517   -0.21325284921584    6.21989306685135
H         4.77959488770368    0.34480489317394    7.29146542416019
H         4.90461186394838   -1.23600315433062    6.55367469361123
C         4.54054081045393    2.19837649698404    4.53935724582382
H         4.84613463571073    2.68853221304397    3.62088915208644
H         4.65261817398211    2.91646445127777    5.34610212699172
H         3.47998406978044    1.97771460863074    4.46030443208285
C        11.19259973044123    2.60598198046535    5.99035494588901
H        11.62875401392067    3.58673431778274    5.83224247597164
H        11.90416290193507    2.02621267423816    6.57066281904603
H        10.30308261772406    2.72786424378742    6.60084128705115
C        12.39466828137256    1.95589393823791    3.27645058133027
H        12.28169703744364    1.61986500122054    2.25079503579855
H        13.23486353871854    1.41909636852195    3.70647710957038
H        12.67263006752665    3.00562694570250    3.25278014375771
C         5.31668161502980   -4.25566796418021    9.24432917251655
H         6.03391975446297   -4.60039619533483    9.98592022714400
H         4.63741462199832   -5.07112747861110    9.00547449346822
H         4.73177731108013   -3.44988129968583    9.69034641836533
C         8.65101725669352    3.00005050722055   10.40582093744492
H         8.09351987828328    2.51056226143096   11.20219046989379
H         8.47318467741916    4.07146231669310   10.45995941572000
H         9.71253827533344    2.82200124271377   10.58246641140506
C        13.31447469862912   -3.08007948489796    8.40330287742880
H        13.13071943540393   -2.73670503461371    9.41868844107513
H        14.38449037377620   -3.04646535468324    8.20849511808407
H        12.99346281701404   -4.12047844654245    8.33455888683652
C        10.49020704599790   -2.29585092722940    1.62593267361695
C        11.51208834461995   -3.40792588310566    1.86229491831223
H        12.03799210335131   -3.23571446561534    2.79647692447488
H        12.23155283948485   -3.43053695068520    1.04760199082867
H        11.01643217685870   -4.37227296347981    1.91426365800412
C        11.21633657561168   -0.96027907216436    1.43094741995812
H        10.50136184170932   -0.18990478650266    1.14892032869227
H        11.97047517292463   -1.04672817870205    0.65234046542336
H        11.68770977847653   -0.67094794619978    2.36623372492757
C         9.64962537167580   -2.60871754216200    0.38462583826486
H         9.17955936495111   -3.58242468931693    0.47846113198318
H        10.28145095367973   -2.60675117579915   -0.49964329131704
H         8.88057812406959   -1.84846020774324    0.26918221565447
C         7.30227840458747   -2.76023905732017    5.70261400426301
C         6.03802456594227   -3.35252129017122    5.63298415010262
H         5.55509769203122   -3.44494040277238    4.67191013952654
C         5.40901540170083   -3.83422288929883    6.76588963972423
H         4.42765970457678   -4.28150065056116    6.67894578711130
C         6.01708567693154   -3.76431181334830    8.01263150311200
C         7.29480568866928   -3.22153208626918    8.08168251107044
H         7.80590045277177   -3.18714328986508    9.03436810384931
C         7.92887931672302   -2.73888473104234    6.95393140500883
H         8.94036515259001   -2.36110641286832    7.00842098208292
C         4.93094943015372   -0.84814909966454    2.66784920879169
C         4.63908099874949    0.24160351088795    1.63200511711105
H         4.11641591619040    1.07373057847936    2.09255755976208
H         4.02138784765510   -0.16346548784795    0.83474959082760
H         5.57470769881427    0.59638679848301    1.20646222857488
C         3.63027290765701   -1.28576794116231    3.34205201496499
H         3.84250393935779   -1.97979318386827    4.14935211399738
H         2.98134335759906   -1.77098863003609    2.61722724413838
H         3.11046767439603   -0.42546479118200    3.75214204528228
C         5.58982610276938   -2.04780890221985    1.97730117317335
H         6.46003978755041   -1.71451603316743    1.41482374625145
H         4.89007597507950   -2.52782535257496    1.29721367527981
H         5.91564141516019   -2.76207461287836    2.72883036284129
C         7.56804448927891    1.41430344601893    6.52957870857485
C         7.69003610129386    0.58380813160782    7.65094238856643
H         7.48153346541099   -0.47105471149011    7.52844631378277
C         8.03224364683110    1.09597597545255    8.88615306489401
H         8.12167368733014    0.42874090191639    9.73271280058115
C         8.25156593574473    2.45766906453656    9.06586969810423
C         8.08911138738795    3.29166007310494    7.96829972630768
H         8.22506611184001    4.35848411441725    8.08694324541014
C         7.74670936646956    2.78572300786383    6.72745286151219
H         7.60045469033567    3.45739101778487    5.89490460903843
C         9.07441162351032    3.27430144019980    2.92212678406849
C         7.54576783993565    3.34052972046583    2.83553676988601
H         7.17900529238279    2.50776809107733    2.23799982834991
H         7.22937530548073    4.27439635919783    2.37704906039561
H         7.12316726153669    3.26333155023658    3.83369468999670
C         9.66579693557656    3.23442250921827    1.50997002100951
H        10.74991018196337    3.25633090913123    1.55077932685219
H         9.31817925257917    4.09192210977032    0.93984607558884
H         9.34434862983749    2.32450167841078    1.00922033538574
C         9.60757263122183    4.49376324798333    3.67478345701575
H         9.27531267183099    4.47090844499972    4.70803836304109
H         9.24772547117321    5.40616670239219    3.20583932546177
H        10.69305829723854    4.50034192369072    3.66096881952442
C        11.11092274253303   -0.72875505596866    5.51911928927751
C        12.28456620648665   -1.40116120981671    5.16428509510319
H        12.65039216764962   -1.32171334909703    4.15119483516894
C        12.98638529296152   -2.14815631795672    6.09155973721744
H        13.88677215598756   -2.66441550870592    5.78617287404867
C        12.56410786763355   -2.24121487151511    7.41205916164288
C        11.42553209231198   -1.53511082971904    7.78201150197952
H        11.09547790065449   -1.56114946331858    8.81182641095044
C        10.71683309206847   -0.78920851661790    6.86058476023220
H         9.85907694894989   -0.20069640408802    7.16241169212049

