34
CSD_code = GOTXUK | q = 0 | S = 0 | Stoichiometry = C14H14BN2O2Rh | MND = 4
B         0.74392268008650    3.07807518426850    1.56617018829870
C         5.01239949336195    2.44890509416852    2.78843759168877
C         4.94976540055153    2.40840193942096    0.15077254011689
C         1.06369226861234    2.11204896353034    0.29120318248418
C         1.12709015682167    2.14436680422530    2.84767257359311
C         2.66333154640193    0.75797547746826    3.91396480398055
H         3.65934083682348    0.32702557306435    3.90963142822255
C         1.77835437265682    0.42396861066591    4.91503236289613
H         2.07188279791452   -0.26226932099431    5.69369288980047
C         0.51385257933395    1.00008344569847    4.89214167429383
H        -0.20497414623231    0.77818509473537    5.66782545602087
C         0.20021066946200    1.84985464756397    3.85471470987480
H        -0.77450178342422    2.30475449588755    3.80507036774730
C         1.74814332673274    4.37983393834002    1.52332299368466
H         1.56303630340125    4.99086150368359    0.64264218995442
H         2.82515649008631    4.07667275522085    1.50030913870835
H         1.60657715778065    5.01608765059874    2.39420287441637
C        -0.80631300498630    3.58192103647998    1.59853773557419
H        -1.53051477762978    2.76793495050102    1.62593468755160
H        -1.04096390708039    4.19132274205932    0.72743387993368
H        -0.99773841601279    4.21127046025171    2.46607642769238
C         0.08899195260015    1.79628143335361   -0.66275069184797
H        -0.88160060691396    2.25436645212469   -0.57674307162128
C         0.35145890630856    0.92237308906191   -1.69434521879478
H        -0.40368204540441    0.68511712982196   -2.42996485384561
C         1.61236798633676    0.34224756334225   -1.76401807456457
H         1.86717880670744   -0.36260977116374   -2.53971670490952
C         2.54475777636278    0.69687525457761   -0.81441810614561
H         3.53898902918640    0.26276930393735   -0.84720503471196
N         2.28641291479048    1.56345379685475    0.17478212529868
N         2.35511531401906    1.60004951312913    2.91790663261524
O         5.84357669952572    2.57454645376837    3.56469658747047
O         5.74587400557971    2.50803977971835   -0.66511388826143
Rh        3.70710921623896    2.15660895463354    1.50410060278398

