30
CSD_code = GOTYEV | q = 1 | S = 0 | Stoichiometry = C8H13N3OReS4(1+) | MND = 5
Re        7.90540600603501    8.98880270210318   10.22092826921554
S         7.74788795364596   10.54198308669024    8.37472910611535
S         7.76954431836484    7.64132754484190   12.39519845205807
S         5.66260129066887    9.25127138381297   10.54020720425995
S         9.03454660943054   10.58191896989337   11.41705578557641
O         8.82657331048239    7.80219618418758    9.49621323975863
C         9.24294563411715    9.85284799956973   13.08123098144139
H        10.12339721044197    9.20977049782192   13.05551326963602
H         9.42877210838012   10.69137918509236   13.75344238463793
C         5.96508110080943    7.36279040494589   12.56839653643454
H         5.85004995534411    6.31689580005884   12.85176494602762
H         5.61098539643584    7.99837925668094   13.37822340568309
C         8.01055040067649    9.08813596273389   13.51033440722399
H         7.12364527816235    9.72203286128421   13.45244000509396
H         8.12724127388002    8.69572181342849   14.52095295927229
C         5.21769465016153    7.63944489818682   11.27638284367193
H         4.14202273671840    7.66064764593650   11.45813039431504
H         5.43641727446914    6.88056011843106   10.52409001866570
C         9.35003447853831   10.76645657435300    7.81802390324050
N         9.60413855013561   11.82699140187604    7.09303674913594
N        10.30705442748219    9.82357534415976    8.06336369871474
H        10.04164390802699    8.97716214441664    8.57972775145736
C        10.82581759848003   12.02124632671032    6.58937454092250
C        11.87480804131343   11.08480443451994    6.84838454305383
H        12.86719889594089   11.24210537863602    6.46349519258045
C        11.56109763698432    9.98935860699698    7.58709524889938
H        12.27761024811061    9.21707001458249    7.82219597915713
N        11.00926162395368   13.10927228534271    5.85628053203071
H        10.22449287331037   13.72431243835334    5.70693356816454
H        11.89927920950095   13.32823873434762    5.44175408355458

