41
CSD_code = GOVBUO | q = 0 | S = 0 | Stoichiometry = C17H18AuNO4 | MND = 4
Au       10.49716297554039   10.98271191672032    5.37516706528691
O        10.89923701885425   12.84120785987940    5.12665206650551
O        11.86010086453188   14.75127507194217    5.46937741463863
O        11.72253319779375   10.76809001928280    6.94953299208008
O         8.30809193638981   12.82808933215380    0.87413598974359
N         9.97989621303666    8.97945453228380    5.45977073749522
C        11.71908013738406   13.60134350921308    5.83503555743336
C         8.64360821831661    8.84278404726422    4.83697740862213
C        10.96370608970190    8.23522477477501    4.66371301121592
C         9.97650931594879    8.44671645485041    6.82367060290434
C         7.44715316822574   12.74751095346357   -0.23638208369216
C         9.28616148120274   10.99112642977618    3.81823093671665
C         8.52415363449241    9.82453991740959    3.70895028789700
C         7.68172454133254    9.65632544209632    2.62545292510061
C         7.58245932602819   10.63723458087299    1.65145966927835
C         8.33118831373250   11.80466368781391    1.76061771275827
C         9.19064886504200   11.96502294942427    2.85512952348664
C        12.39882400821954   11.76082808699504    7.50118492136008
C        12.43340099780360   13.08479158114619    7.02634863823310
C        13.20497248724548   14.02852935839558    7.71328225645123
C        13.92631942098689   13.70449336245593    8.83796638005513
C        13.89050099661326   12.39733641051125    9.30807467650676
C        13.14322321382828   11.44855663109114    8.65256753817171
H         7.58662354649256   13.67824689251722   -0.78356997754112
H         6.40003940402915   12.66299519240168    0.07169001366027
H         7.70521114167235   11.90474550008170   -0.88613249679651
H         8.48066562734121    7.80887710415977    4.51207684094892
H         7.89122208489357    9.08242845456894    5.59597722015386
H        10.93922251426502    8.58261621551663    3.63251934075938
H        10.74035658283225    7.16429966035889    4.68621934362834
H        11.95893105664367    8.39894506877039    5.07124778840798
H         9.22210252045642    8.95863282405379    7.41750718572261
H        10.94731365946646    8.63709841955391    7.27708832404471
H         9.77031819733597    7.37345267198258    6.82029979013005
H         7.09030645821479    8.75620092009661    2.53613767168282
H         6.91643618119891   10.47809535418323    0.81847402459314
H         9.76739675406094   12.87192168704037    2.94356787776506
H        13.20912573688676   15.03348031054488    7.31745085827353
H        14.51182185733427   14.45361000712760    9.34870008596089
H        14.44924141799967   12.12045949042163   10.19088267484792
H        13.10670883662333   10.42823731679744    9.00604720551034

