51
CSD_code = GOVBIE | q = -1 | S = 0 | Stoichiometry = C26H16Cl2CoN2O4(1-) | MND = 6
Co       -4.00971099182628    1.19897184548075   11.31891324434526
N        -2.82079367715949    1.00573890721251    9.88293969098920
O        -3.10201401625819    2.79711498465391   11.71493911034438
O        -4.94762019230941   -0.37595825306450   10.98620879202737
C        -2.13638519897272    2.99904072415179   10.88744906195694
C        -1.28774627798694    4.12011797836057   10.96420815043166
C        -0.26089094123731    4.28768971433792   10.06308535153549
C        -0.06103082933426    3.34010474284552    9.06765949469426
Cl        1.24784906893295    3.56064370852691    7.94248700491451
C        -0.86813033875516    2.22732517021091    8.94500053052668
C        -1.91277124533590    2.04991128092138    9.84790292292211
C        -2.84192030422031    0.04646472253396    9.00923390094841
C        -3.74210681474732   -1.04935795192200    9.01620687860256
C        -3.63606586985660   -2.01919143343690    8.00283481426405
C        -4.46753419468687   -3.10695581287090    7.94829295796175
C        -5.45328669290221   -3.26094836893369    8.92862441498217
C        -5.59012213985492   -2.33848998121065    9.92943369292324
C        -4.75068717000026   -1.19554103831445   10.02187640120510
N        -5.21413982283726    1.53129427435905   12.71586890671309
O        -5.20159522998763    2.14154084101848   10.21157669520394
O        -2.78931976581615    0.25023490488075   12.35798780689410
C        -6.22846830168885    2.54662984041401   10.87445828726492
C        -7.27781561445474    3.27683182468636   10.28410167318063
C        -8.35895141237218    3.68404340876187   11.03235325758496
C        -8.41404296399861    3.37019057910557   12.38411904779727
Cl       -9.79004824057522    3.88690340760715   13.31545278167696
C        -7.41066255629262    2.65996794420685   13.01141920631336
C        -6.31077406471143    2.24567297942397   12.26521728997331
C        -5.05518393086170    1.16910808270871   13.95180642446760
C        -3.95419120998720    0.43036741365137   14.45500613385014
C        -3.92590040917185    0.10468199098589   15.82320991791719
C        -2.89500278409823   -0.60617343564389   16.37941635701649
H        -2.89513982623969   -0.84493963241876   17.43347390118239
C        -1.83632071204176   -1.02156769131343   15.56515009121658
C        -1.82612277359245   -0.72390993587372   14.23003840744112
C        -2.87477660322321    0.01054900012479   13.61319783976638
H        -1.45759428530580    4.84321593971225   11.74688803362201
H         0.39090093528131    5.14665274310559   10.12521913711126
H        -0.67048564601527    1.51695438354350    8.15669443033805
H        -2.12094562889867    0.05528577371166    8.19143768385667
H        -2.86847477648357   -1.89036475685742    7.24989600570701
H        -4.36715675083787   -3.83946358833788    7.16003210614829
H        -6.11294976116264   -4.11813387034534    8.89245050760510
H        -6.34963171347736   -2.44998649814298   10.68948300490057
H        -7.21643173606367    3.50887398059711    9.23209104396802
H        -9.16340640976386    4.24317925965763   10.57770920906376
H        -7.50073614346669    2.43917601231602   14.06416246678084
H        -5.81263311441398    1.44058225771472   14.68745835242472
H        -4.75104705248591    0.43119358530055   16.44396715286380
H        -1.01872731449106   -1.58319356715433   15.99792881102479
H        -1.01155655395304   -1.04057839098858   13.59503161354909

