19
CSD_code = GOVLAE | q = 0 | S = 0 | Stoichiometry = C4H8N4S2Zn | MND = 4
Zn        0.55955929925680    3.08929997587534    8.22894510504976
N         0.64191950049463    4.90039791606903    8.19672061417764
C         0.74455138560073    6.07888313511904    8.16207038640593
S         0.92466384790448    7.63214721381741    8.08771626981813
N        -0.60919650434775    1.87422403775193    8.89415226337016
C        -1.37583785081737    1.06983906339997    9.30131761413532
S        -2.35337532207348   -0.03546414583216    9.82390705502699
N         1.09927500823618    2.44114900097423    6.26951556066252
H         0.37345887917608    1.92767599017098    5.77761392343291
H         1.32828252384807    3.25347596153980    5.70046558585977
C         2.28797438373932    1.60391986152257    6.43930952431367
C         3.21992786362663    2.26202107884900    7.45509534608762
N         2.51392757136142    2.40085201869402    8.72986417559591
H         3.02885846382972    3.01727997522775    9.35223897250075
H         2.45217271193432    1.49515300756768    9.19036473704432
H         1.96718791343918    0.63311896333240    6.82528303844796
H         2.82423240418467    1.44806120027560    5.49565864745102
H         3.48353889936515    3.26236643910583    7.10289058692440
H         4.13717902124129    1.66879930653958    7.55077059369527

