81
CSD_code = GOVLOU | q = 1 | S = 0 | Stoichiometry = C29H39N8O3SZn(1+) | MND = 5
Zn        1.84776788790096    3.37817752030504    6.90048726404357
N        -0.03486985262537    2.54147568254381    7.28353504114216
N        -1.50185567548263    3.30693968700897    8.97400485983765
N         0.00037804784899    1.58831921974656    9.37610035058474
N         1.09912433347657    3.51992115539654    5.02681217306199
N         3.27532162963754    1.87074539029795    6.60227299551518
N         2.86350328765712    0.86405436520847    4.57445940218752
N         4.90487401697720    1.91974362054641    4.89640075055829
N         2.66853907752937    3.38147408746961    8.76802423290579
C        -0.51599250214029    2.50126140316845    8.51778587414779
C        -1.79152070858803    4.58629883776744    8.36749083120023
H        -0.92377220875081    4.94594883666324    7.81805538552346
H        -2.02443079951214    5.29584091216453    9.16321937073677
H        -2.64773326450737    4.52932043340927    7.68869469106693
C        -2.46143943020934    2.88943710314591    9.97317713623311
H        -2.34572540985003    1.83289432508436   10.19673268976147
H        -3.46794426831545    3.05115136656529    9.57858170646114
H        -2.36635967555361    3.46893161392629   10.89441211976638
C         0.22153127561061    1.85458273496941   10.78077717031301
H        -0.07613683972158    2.86759070853885   11.03114075725619
H         1.28553669060409    1.74444775152926   11.00477128363330
H        -0.33210079941593    1.14917405328642   11.40541557432097
C         0.73414584706474    0.45591407297541    8.86228634942763
H         0.33985726517988    0.18945001302704    7.88576914131658
H         0.59882853972199   -0.38100414454756    9.54848114427842
H         1.80156443947780    0.66878348159033    8.76475970342641
C        -0.84828214807785    2.82569882809523    6.20587989520628
C        -2.20009039718589    2.52331655084037    6.15783488060399
H        -2.67129633931992    2.05442603392702    7.00902948640961
C        -2.96830503938344    2.79796125137377    5.02305297589523
H        -4.01967274099417    2.55305858617239    5.03548755273279
C        -2.41317495523133    3.38282996394330    3.91658802722191
H        -3.01269081780784    3.62602586820391    3.05364293179064
C        -1.03307571326781    3.66187920533790    3.89502898955875
C        -0.23966228590077    3.34743449774201    5.02842548274981
C        -0.37969940239446    4.24875955882711    2.79127458301802
H        -0.95963621029343    4.52568152802564    1.92300356303418
C         0.97178765397254    4.45774417261003    2.84011055808964
H         1.49942914846532    4.92010934443720    2.02212780239102
C         1.67876084494023    4.06151543990300    3.98250852900928
H         2.74900964401989    4.19118453307937    4.04181476238923
C         3.69182267166190    1.56840216017189    5.37716844006378
C         2.75272018769541    1.08552206339990    3.14869524268574
H         3.41096892218107    1.88666522860719    2.82968500068545
H         1.72607666208957    1.37319124817511    2.90998280032891
H         2.99040578399105    0.17560819337261    2.59212101803384
C         1.75559824815424    0.13686334711060    5.14932699938406
H         2.02475021365170   -0.19365324715510    6.14867846310475
H         1.55402699532004   -0.73250095472232    4.52253358417239
H         0.85347117993282    0.74968243289868    5.21197555214100
C         5.64831100988987    3.03259933937539    5.44208065105840
H         4.97030395112192    3.73044856625365    5.92971807400584
H         6.14723619468701    3.54624584136482    4.61913670973021
H         6.40596005649090    2.70181608039653    6.15913529985590
C         5.63500548245885    1.12726767001631    3.93101851510302
H         5.13641473105014    0.17777269324720    3.75938072379678
H         6.63251397914716    0.92632001803643    4.33047244530798
H         5.75469697230262    1.65291591353877    2.98097089469965
C         4.13109315549125    1.85382798377671    7.67620190078266
C         5.24167233966052    1.02656708216507    7.76783469432868
H         5.48741069077093    0.37569577461721    6.94195590085399
C         6.04030611707420    0.99949208415878    8.91302570925179
H         6.89713323793659    0.34319162258492    8.93371741916421
C         5.76015158053920    1.79296968952982    9.99422298457163
H         6.39089361172487    1.78817779627095   10.86893544757036
C         4.62571936724455    2.62514320904974    9.96887640388853
C         3.79128920793790    2.63828881986769    8.81754079526996
C         4.26199937377650    3.46628330373898   11.04078017669732
H         4.87976082695484    3.48760635949196   11.92656123257351
C         3.13723896869224    4.24163790006510   10.94013199048488
H         2.83925334743599    4.90269709075374   11.73850708257069
C         2.35711483821091    4.15720894192407    9.77884622848703
H         1.45436516537908    4.74114092087727    9.66662627062459
S         2.19266286732757    5.89562652726879    6.51834224508019
O         1.06555774643187    5.28484589727597    7.25758052769422
O         1.82144708356516    6.48027426273199    5.26271737731248
O         3.24383278016833    4.85779491755303    6.41625401883165
C         2.86031405940709    7.19375406812265    7.57965353586484
H         3.67934914220883    7.66090643862123    7.05032159339629
H         3.20195874445004    6.73187282047453    8.49596848110150
H         2.07060036023676    7.90793030069288    7.76865955063249

