28
CSD_code = GOVLUY | q = 0 | S = 0 | Stoichiometry = C7H14N4S2Zn | MND = 4
Zn       10.34663535715140    0.48966060985217    5.25211879474592
N        11.86651616470602    1.45964702429555    5.50101831226391
C        12.93164026568914    1.97259368921968    5.54801180568404
S        14.36104368386651    2.60945644136786    5.61220887557575
N         8.58172687301020    0.92370025846532    5.34749053618666
C         7.39915939220022    0.94847354558533    5.35587763227624
S         5.83234931405653    0.94326161874781    5.35533684313898
N        10.60266857458528   -0.73052761617590    3.52539507729650
C        11.91196024895811   -0.53998484544009    2.89955342700410
C         9.56709034379706   -0.49855924953144    2.51653615934731
C        10.47962567506138   -2.09182398251791    4.05522920184395
C        11.18508289792453   -2.23315538010999    5.40355882162820
N        10.61620674368967   -1.29733837845733    6.37654154647443
H        11.31016262383835   -1.13564523407117    7.10378464996847
C         9.41713486508329   -1.82202443874331    7.03385586036743
H        12.70838766620754   -0.69104078518813    3.62340095150010
H        12.05164839191149   -1.23397853809977    2.06228245057774
H        11.99113757220457    0.48031808205333    2.53054873726232
H         9.66936188770338    0.50932652341347    2.11911295099693
H         9.65126993213744   -1.21580530943672    1.69195886582065
H         8.58064903771034   -0.58533378786494    2.96734760647624
H         9.41786342493677   -2.30536564872931    4.19305841618211
H        10.88970493769212   -2.82573681269154    3.34814543439686
H        12.24642681623343   -2.00611255770055    5.28690090909269
H        11.09109511074516   -3.27106328147117    5.75018528121751
H         9.07744710098805   -1.10879448317207    7.78127990157312
H         8.61744820147701   -1.94792229086547    6.30758914733345
H         9.61245689641251   -2.78472517276175    7.51837180377082

