25
CSD_code = GOVLIM | q = 0 | S = 0 | Stoichiometry = C6H12N4S2Zn | MND = 4
Zn       -3.23375821826687    1.58873576027626    8.00360465155770
N        -2.81878840784031    0.87455092377965    9.62288126073501
C        -2.44770174612221    0.54567424000558   10.69709623676752
S        -1.96510152136815    0.15456974357303   12.13469124886031
N        -1.84766833050046    3.15205052387537    7.59895352469801
H        -1.40495002313576    2.97790553732426    6.69903245300875
C        -0.77586110362650    3.31883902433246    8.58311365752795
C        -2.68800570598182    4.34420536318424    7.46835100381997
H        -0.15300485945110    4.19066606596862    8.35613265550840
H        -1.19786775387511    3.43520689875781    9.57866979493090
H        -0.15290369437521    2.42740762969488    8.58881862412685
H        -2.09294916631149    5.26242907207221    7.55727178346394
H        -3.15729195702221    4.32908215898310    6.48286603883471
N        -3.64868725070936    0.87455706346180    6.38435874893440
C        -4.01991661835870    0.54495055349365    5.31050698412145
S        -4.50316458776040    0.15303402976831    3.87335057093096
C        -3.77953772522776    4.34399449437981    8.53982172583574
N        -4.61986360020020    3.15188986279564    8.40874855941827
H        -5.06260060547261    2.97739494239084    9.30859287262487
C        -5.69163580503896    3.31902035295856    7.42461470108093
H        -6.31449761584293    4.19077282844248    7.65186186945071
H        -5.26959246691196    3.43572184902139    6.42911391729057
H        -6.31459871215793    2.42759576336083    7.41858374462300
H        -4.37459460989916    5.26225488852893    8.45125921023892
H        -3.31025791454340    4.32849042956585    9.52530416160776

