77
CSD_code = GOVMEL | q = 1 | S = 0 | Stoichiometry = C29H35N8O3SZn(1+) | MND = 5
Zn        3.10393212232147    1.22938874853119    3.88388485850947
N         4.91457092843146    2.21325516045640    3.55693367274384
N         4.84480423623923    2.94419441192421    1.34429781967551
N         6.39677923520382    1.44758188024004    1.83908941177582
N         3.79543962975569    1.19962248468640    5.79238538971443
N         1.63585460345556    2.69657386823193    4.08936420183913
N        -0.02456710289426    2.48634644923235    5.79733905363961
N         1.86472643442698    3.53636206598145    6.25466389465485
N         2.39221305302377    1.20966571154295    1.96574945546621
C         5.38378505345945    2.19552057716130    2.32782431624588
C         3.94871193284643    4.04987083216537    1.52547396848887
H         3.47679670209250    3.96405410669281    2.50016695016971
H         3.17943496836941    4.02747904833167    0.75219787343165
H         4.48526865443890    5.00184959713368    1.46001677073701
C         5.55559748410403    2.77521434882968    0.09422338461166
H         6.06720499115242    3.70532582882882   -0.17949185923890
H         4.85887884001419    2.51829096739362   -0.70956884389588
C         6.54422227914933    1.64508767975503    0.40732537138214
H         6.29448859409354    0.72473977729950   -0.13153749698265
H         7.57726897564703    1.91295753436720    0.16747864515617
C         6.89682359247193    0.24337702701195    2.45822645086902
H         6.12820549321193   -0.19476101706812    3.09718979097813
H         7.78569451895139    0.45009246867571    3.05878384241158
H         7.15828390637457   -0.47107821558382    1.67919613519173
C         5.72850774561034    1.96856225710818    4.64350340480611
C         7.06840430809707    2.31498296009292    4.69660484471422
H         7.53279731082631    2.77366431292951    3.83629591871954
C         7.82714080255059    2.10025152284980    5.85081560113107
H         8.87056675573188    2.37722327479429    5.84568062274105
C         7.27250535865270    1.54084933173921    6.97080774603575
H         7.86481628535626    1.35430345624799    7.85269500771019
C         5.90329982841139    1.21122923003420    6.98082698154930
C         5.12103913672424    1.44965606303633    5.82160910178003
C         5.24939913425872    0.64573472149088    8.09482215859740
H         5.81864301004808    0.43222732422166    8.98777997025912
C         3.90913533625367    0.37536761642745    8.02481723799874
H         3.38295791511018   -0.07115292590451    8.85297702340278
C         3.21579997955573    0.67670449125039    6.84630513549036
H         2.15761508149665    0.47808309977956    6.76311322434336
C         1.16343834466278    2.89612122903106    5.30470466636426
C        -0.83013931603372    1.44262503741233    5.21035881137534
H        -0.19248466180838    0.73853080309949    4.67237267359713
H        -1.56824279948856    1.85926397478327    4.52083329617487
H        -1.35139867904071    0.91144947323526    6.00425082125384
C        -0.12375706950886    2.77918743047837    7.21762807891651
H        -0.15263911009229    1.85009471447652    7.79633459455903
H        -1.03997070288848    3.34066119745734    7.42251684476062
C         1.14340914259515    3.59429335152749    7.50862582951081
H         0.91539133007266    4.63502650936268    7.76499151571200
H         1.74573412261388    3.16582987359790    8.31579298112679
C         3.06813325170232    4.29278356438413    6.06538058816428
H         3.49538741230018    4.04227259381597    5.09834584763602
H         3.78683802956523    4.04413817859100    6.84779209816225
H         2.85903398156112    5.36623058918839    6.10836470759849
C         0.81630267036140    2.66585967709261    2.98845527833032
C        -0.34047502197056    3.42084482295721    2.86502967157030
H        -0.66264575921011    4.03365201567359    3.69368221646868
C        -1.08131898325915    3.42687255341283    1.68105913149285
H        -1.97782055162425    4.02618509078418    1.63202698258517
C        -0.69131136386849    2.69119879494790    0.59271818990025
H        -1.27064771881715    2.69071130097985   -0.31696297086179
C         0.48747344845594    1.92529476598620    0.65746898935691
C         1.25181070888078    1.91792931893447    1.85630735767800
C         0.96576700968673    1.14769161299673   -0.41702971763765
H         0.41092977665153    1.13045750752397   -1.34370468474108
C         2.12071685604162    0.42565313211736   -0.26759463110263
H         2.50590561455763   -0.18522243025589   -1.06902036722673
C         2.80714536830924    0.48733201740802    0.95220851018978
H         3.71667707564044   -0.07502732703876    1.11154520143164
S         2.88793526337134   -1.27085459901578    4.31023854012825
O         4.00640425416579   -0.61543912192687    3.59327401739669
O         1.77962856301975   -0.28658106963668    4.35318344842324
O         3.24362757500316   -1.80584169880712    5.59149971543091
C         2.32657123811331   -2.62417241241725    3.25714709326899
H         1.50253858974030   -3.11187357743918    3.75921116368161
H         3.15312577201612   -3.30888327120072    3.12661978300206
H         2.01177922349173   -2.20149370144383    2.31287668947849

