91
CSD_code = GOVNIQ | q = 0 | S = 0 | Stoichiometry = C34H36N6O10S4Zn | MND = 6
Zn        8.94492509353816    2.33744983250776   12.19551615202845
N         8.93219337922033    1.11700779440844   10.54925081183615
C         8.76911083793218    1.62909447157669    9.33048836226877
H         8.38478242933324    2.63602882262744    9.29154149993106
C         9.06379919436206    0.93827103210614    8.17439752085373
H         8.89972881747348    1.40435732591314    7.21703506244378
C         9.57295686792030   -0.35371598475030    8.28699571751808
H         9.83753270546689   -0.92115728827646    7.40665561484840
C         9.72568693698341   -0.90140648021240    9.53899766924592
H        10.10687437408569   -1.90095121675515    9.68071594235751
C         9.36686000680363   -0.14283760825461   10.66916318147158
N         9.48788172718702   -0.71604783359559   11.89652577515577
H        10.10938580101778   -1.54916376874468   12.02462923290044
C         9.11064638657753   -0.18781845667025   13.11027805365716
O         8.30122078812169    0.76387235078932   13.20412062418293
C         9.65278219167599   -0.84779636070533   14.25096639121247
C        10.56923389036193   -1.90935084192411   14.17614892143489
O        10.98843873910146   -2.39844036251745   13.09046769833370
C        11.04192872973901   -2.52478197433104   15.44478817601728
C        11.45335928614327   -3.85742452945755   15.45129384991406
H        11.44305015418513   -4.39995680797585   14.51808017666324
C        11.86166066209658   -4.45642475948030   16.62795976951639
H        12.17718488626674   -5.48937700000980   16.62152831306815
C        11.86656822006523   -3.74231252817304   17.81839886712967
H        12.18010187702161   -4.21804574374589   18.73528090716662
C        11.47422686878735   -2.41337770474139   17.82470005293289
H        11.46839921903513   -1.82241466312169   18.72716733854815
C        11.07928794349328   -1.82220048720168   16.64320736922151
S        10.55529534416975   -0.12887182812788   16.52948183835070
O        10.08553498936364    0.36572067599203   17.79260297492761
O        11.58968119466547    0.61888620887487   15.86719630437235
N         9.27987602091678   -0.27584795880041   15.49954838419923
C         7.98777473455209   -0.60861681521497   16.04915866883277
H         7.21459911568593   -0.23059152703351   15.38087314135234
H         7.91815132868636   -0.11882017234716   17.01765796519948
H         7.86283346700951   -1.69066211253001   16.17531971235782
O        10.78522745413842    1.71884362249208   12.64595940650670
S        12.23220118474950    1.99931620391574   12.47820629184549
C        13.03520536415637    0.47731618242487   13.09528494139507
H        12.82014938113096    0.43782598135636   14.16153805593517
H        14.10392534467577    0.53854205494288   12.92547298938542
H        12.60904309915149   -0.39561697642068   12.61160937477166
C        12.54107591395493    1.70194327926643   10.68668362834136
H        12.25762607552800    0.68882155900805   10.42357844577940
H        13.58898130002443    1.87707506138995   10.47222200878149
H        11.92224014085146    2.40926421690809   10.14322343040709
N         8.95766429731152    3.55769749498053   13.84180206582069
C         9.12146340733515    3.04566867741178   15.06048447910723
H         9.50672097447379    2.03908560271138   15.09928426415565
C         8.82638558373897    3.73614077903070   16.21668792397501
H         8.99108305242808    3.27013510859532   17.17398194761946
C         8.31600520886103    5.02765685979349   16.10427805579736
H         8.05103998995342    5.59477399003452   16.98471094804995
C         8.16261883590700    5.57534170662139   14.85234804077166
H         7.78055189835491    6.57457470112009   14.71079927917918
C         8.52197188359559    4.81720881376103   13.72206547802735
N         8.40059933663746    5.39045001565004   12.49474768078273
H         7.77846627511086    6.22307264340931   12.36649933384009
C         8.77858918167902    4.86259860802467   11.28106052830609
O         9.58848926049093    3.91129905810429   11.18734906643534
C         8.23668754966338    5.52251814383047   10.14022763361425
C         7.31945007300642    6.58340212124848   10.21476130596375
O         6.89917307166333    7.07179726237378   11.30034555107298
C         6.84723118375638    7.19895340324019    8.94600730220613
C         6.43485748920555    8.53130671148004    8.93969591366337
H         6.44397515894859    9.07345971607088    9.87314204202138
C         6.02720374533166    9.13052324463975    7.76291718089084
H         5.71092959005846   10.16324512256451    7.76951132327423
C         6.02392925055999    8.41693924096050    6.57215330383985
H         5.71087438783115    8.89283871584306    5.65519635606329
C         6.41714825427443    7.08826792705965    6.56565490837258
H         6.42418529800753    6.49769023443548    5.66294659818480
C         6.81139864486904    6.49685494261522    7.74725844022077
S         7.33618680831703    4.80376582763291    7.86083527003717
O         7.80713352492367    4.30972158146368    6.59796596953875
O         6.30167815631986    4.05540569317339    8.52228302451908
N         8.61079345545290    4.95108999203548    8.89176501090342
C         9.90301999986724    5.28500152864731    8.34311839587716
H        10.67601987640492    4.90752861253743    9.01191998258805
H         9.97375067748875    4.79539649901105    7.37460219634229
H        10.02715964560379    6.36716746210345    8.21720121977696
O         7.10463130016227    2.95557803304954   11.74450526287843
S         5.65766398956963    2.67448278414849   11.91123227312117
C         4.85444809138815    4.19604700434906   11.29345261011055
H         5.07016651914252    4.23546076428860   10.22733052711321
H         3.78563265576411    4.13443081594443   11.46256497544125
H         5.27994620723281    5.06924052596332   11.77723280904981
C         5.34745097276454    2.97158987694100   13.70256688658876
H         5.62954741553992    3.98508433706988   13.96590767645427
H         4.29962520213210    2.79518565361197   13.91644783470166
H         5.96682315146207    2.26491527699022   14.24633450908819

