104
CSD_code = GOVVOE | q = 0 | S = 0 | Stoichiometry = C40H60N3Nb | MND = 6
C         4.17314523744213    2.64703823922404   -1.03695125369535
H         3.56783463234329    3.07626265914287   -1.84198521532677
H         4.08452181616514    1.56031131226965   -1.09213762473540
H         5.21353486081287    2.91500999843534   -1.21674440415906
C         3.70813716852418    3.14867975711149    0.32011784074097
C         4.17393404876989    4.51284180278613    0.57744655030304
H         4.75327415272215    4.96206537607375   -0.23236159063286
C         4.23707834186024    5.19188250012689    1.77878557532191
C         5.10240458413201    6.43987709622351    1.82948708536817
H         4.99770201828487    6.94175971720474    2.79001323135571
H         4.85151473650866    7.13552362115501    1.03020625301038
H         6.15138406777354    6.15424505812735    1.70655258381924
C         3.23210162809806    5.49076687415706    3.95727127233169
C         3.35975491115565    5.07181401180994    5.30674969814422
C         2.87213066816517    5.87388867621496    6.32663764730721
H         2.97106903719818    5.54545672612467    7.34910345432887
C         2.25887821341131    7.08303630902695    6.07453785579532
H         1.90662937973383    7.70347190706739    6.88492497491391
C         2.06624983813014    7.46122471290266    4.76296405227113
H         1.53651017876713    8.37890569296283    4.55680329192198
C         2.50896942511813    6.68776574160086    3.70160298454035
C         2.06952773452944    7.14538784660645    2.32319603095634
H         2.50200044793028    6.49327086942312    1.56053337281252
C         2.49753967986162    8.58443561114688    2.01397658557147
H         1.91467322873282    9.29518062928284    2.59476744666978
H         2.33406258467538    8.80260311456116    0.95973474966083
H         3.54745774506683    8.74691962716811    2.24231636621133
C         0.54336447981429    7.04107803394760    2.20693772871818
H         0.20407947052607    6.03765417625632    2.44951977895608
H         0.22682228727759    7.28047335058604    1.19257691291348
H         0.05602638343406    7.73408129048307    2.88860458335446
C         3.96168118437368    3.74032484767146    5.70433979601674
H         4.58505681341483    3.36353135243795    4.87425206294027
C         4.85171385119783    3.83838468458351    6.94705317772084
H         5.52571183324840    4.68832092901676    6.87616241022693
H         5.44267849141377    2.93050416161528    7.04561664003905
H         4.25831339769472    3.94515924353448    7.85224441081761
C         2.84769577077077    2.71722692698097    5.96663185210086
H         2.11992143208368    3.12443755319014    6.66696022744567
H         3.26755690173927    1.80944047019289    6.39807297273468
H         2.32951248261870    2.45274969155338    5.04634705009227
C         7.48788673065326    1.94183788122755    2.50096827655335
C         8.30342747939249    2.27807099956169    3.61546431337041
C         9.64274602403130    1.93806084029714    3.61837032082549
H        10.26334048373887    2.20089074600446    4.46026461161404
C        10.21507125669150    1.26439688969606    2.55326026012431
H        11.26335708221428    1.00568633831963    2.57343978326637
C         9.43503620005929    0.93659738803203    1.46155123500341
H         9.88790754456850    0.42222041893306    0.62677412997166
C         8.08996544710101    1.25884255644396    1.41401157570085
C         7.28430889079870    0.92635471180518    0.18147448675110
H         6.23753149975683    1.18210759181209    0.39561547066252
C         7.36881047165816   -0.56123482750223   -0.16715899039619
H         8.36887804912178   -0.82788284207602   -0.49983547131326
H         6.67220360025552   -0.80078033819626   -0.96816940778139
H         7.12452742865354   -1.16833077069776    0.70091221798075
C         7.76485082221068    1.78163630137544   -0.99451617612782
H         7.66692913290001    2.83796023114234   -0.75064258646353
H         7.18241216085224    1.56643917328150   -1.88843259009782
H         8.81122559351889    1.57956464228681   -1.21227158840216
C         7.67232888928059    3.04777832274211    4.75081246419808
H         6.66966061361419    2.62312353988984    4.90013831011093
C         8.44240954252272    2.96135973564803    6.06644175486380
H         8.63861272490708    1.92494864641642    6.33052823196891
H         7.86133057187721    3.41663233735756    6.86480065625333
H         9.38837489225730    3.49374781343267    6.00147338016367
C         7.51708669207742    4.51204150605288    4.32132564497619
H         8.49472856463430    4.94550313735214    4.11796564252499
H         7.03320143907973    5.09537472185456    5.10122943599384
H         6.91243615754626    4.56536475791717    3.41372917906692
C         3.54559607214273   -0.14556620530444    2.90738547909559
C         4.65936420760490   -0.15696992213880    3.96718141914728
H         5.61199124714279    0.11899869422992    3.51624809144314
H         4.74825188264948   -1.15117377185106    4.39938457904249
H         4.42619103244937    0.55402034029947    4.76031650354580
C         4.01993305607129   -1.00045148358624    1.71495343644354
H         3.21207216666669   -1.19927389025915    1.01424904281600
H         4.39840996077139   -1.95511627619655    2.06968330019767
H         4.81696068481353   -0.46722697453255    1.20119846928260
C         2.30363347830136   -0.80160928586685    3.53667471949403
H         1.98136444095877   -0.24063614359638    4.41138297313311
H         2.55587698186077   -1.81076153366634    3.85398325842529
H         1.47922769938218   -0.87145752411553    2.83211911854643
C         2.28120849297920    2.63092686343879    0.59690266696221
H         1.94034735049307    2.22942535531295   -0.36677588785939
C         2.16119207454648    1.44284272508160    1.62654662863135
H         1.99307198907142    0.51563440105681    1.05923080867394
C         0.85214761320205    1.82685393583913    2.36330824721595
H         0.66910253393724    1.25422913050471    3.26996906292839
C        -0.30859407102300    1.76795178702734    1.35527694074001
H        -1.26613703074156    1.74991705570931    1.87633149036030
H        -0.25544457327437    0.87699075265852    0.72795182822595
C        -0.14262291270200    3.06717319289895    0.53682600250899
H        -0.13023036588480    2.88839465050099   -0.53874838090070
H        -0.95170341730763    3.76861912889702    0.74743927379303
C         1.18970409097785    3.61697113063780    1.06495400074702
H         1.37958717252059    4.65118090668609    0.77804935191616
C         1.01719720146330    3.32631681323677    2.55443647799112
H         1.87062442528934    3.58610030252661    3.17114219415125
H         0.12686230570314    3.79529595419382    2.97544719921959
N         3.70507478460288    4.69004804889615    2.92667435247403
N         6.17858187587855    2.27557405360601    2.47293379607500
N         3.32835339505204    1.23787448191049    2.47665972640744
Nb        4.47756302283497    2.81339865552427    2.31429083889199

