75
CSD_code = GOWCUS | q = 0 | S = 0 | Stoichiometry = C30H34N4O4PdS2 | MND = 4
Pd        5.97759049948077    4.41416027789382    5.32666220199540
S         3.42786044871864    4.02818776711256    4.92860144762787
O         3.70581261515337    2.61303702839124    5.04146060307857
O         3.37526382983951    4.73161968585027    6.19929469128519
N         5.44149580378590    6.26324578937245    5.82636475535335
N         4.51394030888145    4.66255873781419    3.91196225882827
C         5.68105737326230    6.82494925871845    7.00558677347726
H         6.32899687085533    6.26794049135515    7.67079534410078
C         5.13865801990347    8.04783045728898    7.36209956135588
H         5.35703561330880    8.47638645503403    8.32724363064970
C         4.30913967413155    8.70069611344824    6.46343406959894
H         3.87066559875227    9.65692690184950    6.70781493634848
C         4.03495792750179    8.09098183138539    5.25122344295519
H         3.37315292087267    8.55129118160711    4.53295774770623
C         4.61708287960173    6.86309865334540    4.96292285078842
C         4.33201913364723    6.08346119602539    3.70602752359266
H         3.30504451148750    6.28676842234302    3.36066678404216
H         5.02828940263788    6.40118862308122    2.91711707922219
C         1.83787544841069    4.22755253111661    4.07164691254321
C         0.79366667347064    4.99848153011689    4.58157363105464
C        -0.37583470718620    5.11080288941834    3.83739046525006
H        -1.19031219467641    5.70394930550907    4.22917132675624
C        -0.53087527259938    4.48260948106196    2.61094612103426
C         0.52476889885223    3.72968741927148    2.12306230129567
H         0.42701069137471    3.23395162824101    1.16761702863169
C         1.71030048261934    3.59576853592389    2.83503053799747
C         0.86872272540714    5.71325085860565    5.89419717839561
H         1.11184479013438    5.01744729961062    6.69247643482007
H        -0.07913446935004    6.20180548570663    6.11209885759756
H         1.66162698619900    6.45876735522327    5.88364996554135
C        -1.80311660282527    4.63585258402031    1.83398765501926
H        -1.85922253945986    5.63474679306219    1.40131529837779
H        -2.66641476831047    4.50541684181392    2.48326494211710
H        -1.85588805996927    3.90978012932035    1.02708189154317
C         2.82562051061286    2.78741930028258    2.25682119901292
H         3.15065160800171    2.04571260289962    2.98196478599874
H         3.67493362473311    3.43811061193201    2.05474433751290
H         2.51159361129854    2.29881194550715    1.33731867945067
S         8.52736856904274    4.80022123275511    5.72462113519917
O         8.24941649080174    6.21537255991727    5.61177651125233
O         8.57994410432994    4.09679587277802    4.45392307968727
N         6.51369464394026    2.56508137816587    4.82692997673952
N         7.44131949359190    4.16584487540039    6.74129375246323
C         6.27412455122833    2.00335561296143    3.64771911152396
H         5.62619887949278    2.56036131599781    2.98249802016741
C         6.81655440215952    0.78048229525007    3.29120880992167
H         6.59816645414964    0.35190418033291    2.32607593370442
C         7.64611267700192    0.12765230702415    4.18986473201949
H         8.08457221449816   -0.82858855101529    3.94550667775718
C         7.92029773951635    0.73739113552679    5.40206485509360
H         8.58211416602951    0.27710296495078    6.12033223719898
C         7.33814599619544    1.96526553081989    5.69036128147119
C         7.62325021918437    2.74494315103474    6.94722548981410
H         8.65024097036935    2.54165502885200    7.29254519689390
H         6.92702949806661    2.42721602985059    7.73617779556447
C        10.11737987910820    4.60085429690767    6.58152254551404
C        11.16157202813402    3.82991927489518    6.07156957737348
C        12.33110500303331    3.71762340398238    6.81570491826381
H        13.14557325434584    3.12448121679892    6.42389980260052
C        12.48619149344475    4.34584880826709    8.04212577416415
C        11.43055814928954    5.09876810964271    8.53003991737305
H        11.52835364731255    5.59453167591658    9.48546654888153
C        10.24499470428027    5.23266064486907    7.81812022207255
C        11.08646987513946    3.11511888735016    4.75896867375340
H        10.84331706209989    3.81090660474621    3.96068590051948
H        12.03432012327151    2.62655909622215    4.54104498513095
H        10.29356383172095    2.36960454195411    4.76956735955580
C        13.75846704998430    4.19263127001958    8.81903177237383
H        13.81458592546730    3.19375698737305    9.25175015852834
H        14.62173630519046    4.32302979157871    8.16970894368455
H        13.81127873319096    4.91874249550078    9.62589954841572
C         9.12967997356979    6.04100708001921    8.39635117672504
H         8.80459647674109    6.78269260653397    7.67120808175458
H         8.28038525283294    5.39030989451619    8.59848757148551
H         9.44373929368579    6.52964239174300    9.31582667340126

