37
CSD_code = GOWQOY | q = 0 | S = 0 | Stoichiometry = C14H15N3O4Zn | MND = 5
Zn        1.57110254913447    0.87247508165366    1.72213814760701
O         0.54236643363291    0.39339649450800    3.40225116051231
O        -0.42578619770511    1.28883537034712    1.67218239180215
O         2.35099906299564    2.64523495788373    2.33760173719910
O         3.64512808226344    0.90359575203654    2.15222225591865
N         1.94973044541078    1.38195993159965   -0.26318491424780
N         3.45558312908488   -0.39537708044363   -0.53333076754185
N         1.85499925365628   -1.11210531182278    1.04057828478604
C        -0.46551930398246    0.90235134879077    2.85945431944268
C        -1.74670908834462    1.04170464464939    3.65107480314082
C         3.46853829596081    2.09976402214119    2.46800676948450
C         4.62787757124883    2.91199582179024    3.00538379643011
C         1.53524347564263    2.59504092374529   -0.61627656750258
C         2.20213920679126    3.38036729689428   -1.53364108343453
C         3.37310692471283    2.88399661288931   -2.09764825408786
C         3.80037583699123    1.62260333788577   -1.74797654716675
C         3.04862050466364    0.88332474408946   -0.82066944415692
C         2.93480984689780   -1.35369301989041    0.30005267421395
C         3.56710327274227   -2.60789436239136    0.31105230208155
C         3.04947718981239   -3.61570838364065    1.09180353137828
C         1.90470938104952   -3.36162880705511    1.83922633058448
C         1.35770527838059   -2.09660313069780    1.78415457812074
H         4.32763401991855   -0.66071035552507   -0.97168235905318
H        -1.77356926541272    2.04272311519994    4.07604976056835
H        -2.60212180960998    0.91963456462184    2.99332175403345
H        -1.76835232780361    0.31559645994068    4.45790850688239
H         4.60439151426442    2.85599897653480    4.09141749794904
H         5.56827559052793    2.49996443372918    2.65167674556713
H         4.52111355431033    3.95077531377619    2.70754829929297
H         0.63167233674809    2.92203385016831   -0.12449820130128
H         1.83073654069073    4.35804616103722   -1.79211851627476
H         3.93934872137092    3.47470389457516   -2.80238321994967
H         4.70220799400202    1.20422539638227   -2.16964681026412
H         4.45370934083126   -2.76861614360685   -0.28415939518717
H         3.52460156339736   -4.58499218560249    1.11961864095270
H         1.46161851627040   -4.12377287285601    2.45851329750443
H         0.48543255946246   -1.83804685334105    2.36467849471769

