42
CSD_code = GOWTAP | q = 0 | S = 0 | Stoichiometry = C21H12Br2MnN3O2S | MND = 5
Br        3.99824070056419    9.59187759437491    5.75508988088646
Mn        0.09790350674828    8.04218408274301   -0.24673502576120
Br       -3.79804271601491    9.99222415512897   -6.24980351027293
S         0.42355121994541    3.55845748695447   -0.97018827781337
O         1.67642281778869    8.51135932508793    0.34961324373016
O        -0.29184300305108    9.13898892292569   -1.47467738822798
N        -0.41817126641159    7.36617186350209    1.49210592956797
C         1.46281300099741    8.31860724647696    2.69918488361842
C         2.14885091363971    8.76318598076176    1.51536979169772
N        -1.99542236879101    7.46417622063570   -0.55168174228184
C        -1.06881564203022    9.34520093551909   -2.49432659972630
C        -1.82817391529803    5.65406481887586    2.59798847003834
H        -1.12913703893144    5.51412324691718    3.40763636924363
C        -2.24778944314946    8.55350433472418   -2.66529042678259
C        -1.54152782689641    6.54267302718675    1.56025897136905
C         3.23016269995725    9.25155424293219    4.04760037489077
C        -2.59880076563232    7.56784514334700   -1.70244324722068
H        -3.41913956450393    6.90088272545236   -1.96371263869852
C         2.04907211862508    8.57134265778995    3.95947703894049
H         1.55023840356399    8.21998232985073    4.85043415070535
C        -3.04278895593314    8.75920311447681   -3.80347678506900
H        -3.93583779391078    8.16727607598204   -3.93817209446778
C         0.22775158413847    7.65197193496910    2.61419866668184
H        -0.23140476003643    7.37018939723878    3.55824158741947
C         3.36720886188327    9.47096129241154    1.66749273575502
H         3.86780059534967    9.80855696662133    0.77267075660381
C        -2.42091491431064    6.61754538251672    0.45160232404734
C         3.89787056629770    9.71370807742987    2.90267215496732
H         4.82779264957345   10.25103810573731    3.00702772248886
C        -0.74975282133190   10.31034549117753   -3.46704248216693
H         0.14655158847855   10.89708169898626   -3.33069732694957
C         0.49084083043125    5.12264828589604   -0.82185446916418
C        -3.89511764034709    5.05041968430993    1.52804877153460
H        -4.81113164578450    4.48034483555663    1.52987746942672
C        -2.69747879585429    9.71663926189070   -4.72468338892103
C        -3.61687475381000    5.89358974595547    0.47380872894858
H        -4.32625479776033    5.98253716343266   -0.33358669599974
C        -1.55089893922930   10.49850083313002   -4.56568099220962
H        -1.29984068778494   11.24177617919355   -5.30646858683259
C        -2.99223585731788    4.91335717016654    2.57562667360362
H        -3.20060124383787    4.22320152601669    3.37821189637069
N         0.58172509997130    6.30330143569481   -0.75751691396354

