56
CSD_code = GOXBOK | q = 0 | S = 0 | Stoichiometry = C24H26BrNiOPS2 | MND = 4
Ni        7.70163345399864    3.97320232631733    2.94498452102027
Br        9.46453075353624    2.73953635181841    3.42874700706609
P         6.98704864919935    2.47583133434263    1.55117076655650
S         8.17095410260367    5.60225727658079    4.44531602853687
S         5.98848323589412    5.42620893836348    2.59817829048137
O         6.33965469075090    7.49344186795757    4.10690939106788
C         7.90272614082801    1.78188736032136    0.14067430800161
C         7.21142200490200    1.01395162369003   -0.79564885249162
C         7.88493007236755    0.46595623288711   -1.87048217973666
C         9.24445112758921    0.68786812284870   -2.02710309037121
C         9.92875062704070    1.46478368457155   -1.10857864187804
C         9.26210095848246    2.01382756724494   -0.02647843021748
C         5.39203837170527    2.87965872813925    0.76799477451259
C         5.41630867915726    3.73629063112122   -0.32988732568861
C         4.23589911529627    4.13513365701690   -0.92529396246638
C         3.02304284307777    3.69175364552746   -0.42117341584682
C         2.99483998348578    2.85183231180032    0.67915393730561
C         4.17480293209344    2.44904089306474    1.28008796338697
C         6.80926100064076    6.30667608026839    3.77260476142647
C         6.57733623525821    1.07076135272118    2.63719179191149
C         6.52815821121085   -0.25625074583971    2.23510003592579
C         6.18405105494916   -1.23430148644541    3.15313039704913
C         5.89079419062793   -0.89553922811656    4.46325732207873
C         5.95006441005920    0.42820003145171    4.87183252269712
C         6.29649152907575    1.40571324299307    3.96120975178355
C         6.17449059205201    9.42267448584431    5.50870310975094
C         7.03659059467854    8.23784409921443    5.10036726734653
C         4.86296126877882    9.01421418530762    6.19130925395659
C         3.94672301117065   10.23002412172899    6.30891692237932
C         5.10850196403624    8.41365991038678    7.57356359857060
H         7.99155786784947    8.57803264007902    4.67968058633467
H         7.25614985795282    7.58670406012229    5.95442473142323
H         6.76045746324668   10.05411293479544    6.17868085353588
H         5.94456134092915    9.99748342713170    4.60946384804417
H         4.36963396450008    8.26632417821104    5.56125874270553
H         5.63494000148130    9.12456365380483    8.20745210798807
H         4.16133451942866    8.16805849740828    8.04803383822895
H         5.69773779927175    7.50187730272858    7.51664624908009
H         4.41580249152821   10.99857514279448    6.91987506584196
H         3.00364902502926    9.95147751013778    6.77274435425039
H         3.73427012988193   10.65095050134974    5.32888415960287
H         6.77304170607270   -0.52642425391814    1.21891550629296
H         6.15188716723038   -2.26838567224183    2.84365352910212
H         5.62779811214943   -1.66543020153985    5.17296433684480
H         5.73792005063415    0.69067444757464    5.89729574924126
H         6.37454272234580    2.45546934384254    4.27232746494765
H         6.14668983564839    0.85776287024562   -0.68638131086503
H         7.34689680941389   -0.13337968954518   -2.59035705648326
H         9.76569359166690    0.25889415157380   -2.86992669175065
H        10.98540124633721    1.64648419673935   -1.23154247321894
H         9.79944558759884    2.61570959724855    0.69102605056611
H         6.36896297135716    4.08349851057965   -0.70947835831109
H         4.25850552996136    4.79753662784413   -1.77800349533730
H         2.09931281287599    4.00812144274383   -0.88255775938119
H         2.04942637378049    2.51283415439619    1.07660803099467
H         4.15183921728415    1.79983602275480    2.14425411621004

