39
CSD_code = GOXKUB | q = 0 | S = 0 | Stoichiometry = C15H15N4O4Re | MND = 6
Re        7.39955096637078    8.85944192004864    3.14595176545265
C         8.71513655826247    7.43777652812607    2.92947172236524
O         9.05570672858906   10.24169859474657    5.35746064770628
N         6.19956620775145    8.08478414808778    1.38612036897928
O         9.50038054372324    6.62108061536888    2.74920535267408
C         8.44587094341769    9.70487682014735    4.55087992918271
O         5.77573138722708    7.33473569099787    5.29757336277622
N         6.01729780114338   10.52190737601964    3.07019231084379
O         7.77181416545573   11.97353985128030    0.34407379384760
C         9.46027725769252    9.88617198197988    0.90710107412130
H         9.61692516061000   10.67919665702098    0.17115317516221
H         9.40488301623320    8.92071300058328    0.39335688152301
H        10.30902564398922    9.85738071380726    1.59455183427858
C         5.32450087266947    8.16132125535302   -0.66229890760723
C         7.54852389361013   11.21108223872524    1.29187905533067
C         5.49750961683566    6.96901860493558    1.20586164191433
C         5.06896732538683    8.73547797689881   -2.00504198251438
H         4.88667759676395    9.80663025167809   -1.93571888101994
H         4.20838606260523    8.25430063239692   -2.46097806096477
H         5.93286610710163    8.58275282537708   -2.65248823169064
N         8.24105729107836   10.13593569581255    1.64839357884342
C         4.45137517033279   12.79914745973640    2.74228500792192
H         3.84455652820976   13.68351126937683    2.61980650221331
C         6.32777244916913   11.44322835893526    2.15064944543222
C         4.13041775370550   11.84135166745693    3.69446573794630
H         3.26871720789673   11.95534039169128    4.33273295219839
C         6.38784157116165    7.85719194897457    4.47553873986891
N         6.08480386507974    8.79122910048210    0.24990696557229
H         6.59233340313233    9.65919204921685    0.12515882704897
C         4.93745729531080   10.72571209326706    3.82328422672148
H         4.71159039017189    9.96598352152499    4.56085002813880
C         4.92217751512498    6.98075090344570   -0.07251852290557
H         4.30201200840258    6.22126773233620   -0.50138430583305
C         5.37982342768357    5.89602170393480    2.22572173415288
H         6.32054973031899    5.77791802309426    2.76174832021000
H         5.11747557850278    4.95830321342090    1.74295069830332
H         4.60307846001916    6.13860297394871    2.95011767047932
C         5.56785801158460   12.59018677459795    1.95691280241923
H         5.88680448766722   13.28203743516443    1.19227273890443

