40
CSD_code = GOXMUD | q = 1 | S = 0 | Stoichiometry = C15H16N4O4Re(1+) | MND = 6
Re       13.57119587067054    0.08304660345798    6.72720912426265
N        13.17047779373062    0.51602857098704    4.63377097872621
O        15.22828898267647    1.52241157524204    6.30600368507887
O        11.48849786583193   -2.17131872635031    7.08884330365299
O        14.58338665593385   -0.21753497783465    9.63263858975005
O        11.52668732319758    2.24521383881951    7.57167055361693
C        14.17078012956386   -0.13201335671053    8.57631914481317
C        12.24120573540700    1.40919614005322    7.27461852774714
C        12.91422898991294   -0.19750292107571    3.53949416179516
N        15.25829076307629   -1.10697163131719    6.02031493368117
N        13.17490867762077    1.80808499487042    4.25185991894505
N        17.39083686139045    1.77854486652181    5.77879698684014
C        15.23824486242057   -2.42932962534102    5.88203640992575
H        14.32137427695756   -2.92967751392230    6.16248452043325
C        12.92431332371149    1.94476505835609    2.93696705997733
C        17.48121333895124   -2.47913716504139    5.07057304502239
H        18.34343366810003   -3.00773697186648    4.69625782397644
C        12.24268965013704   -1.32205253069191    6.95759974971704
C        16.38968631539721   -0.44653692619712    5.71060900741820
C        12.86996238212321    3.26222014894602    2.26360025537981
H        12.71464759320117    4.06063401969057    2.98521026616011
H        12.05865008157079    3.27603639219156    1.54013499004185
H        13.79728563221737    3.45568902292185    1.72411964454329
C        16.30527444785731    1.02707069474507    5.94998162978601
C        12.80736125670104   -1.67882441035027    3.53388096777071
H        13.77016167758482   -2.13647056369719    3.30261616957410
H        12.09845199404126   -1.98956203753138    2.77111467546266
H        12.46731150284245   -2.04005616622290    4.50211393517345
C        17.41612723798142    3.19932166976785    6.04840960815365
H        16.46147512839963    3.49324929590502    6.48003304558184
H        17.58673992382094    3.75681735053193    5.12641351700169
H        18.21458307535338    3.42797097921092    6.75362538059241
C        17.51523835064942   -1.10218639599907    5.22615432214055
H        18.41109629399783   -0.56115756972752    4.96556355985131
C        16.32161251780115   -3.15536711651871    5.41419117022474
H        16.25151066380919   -4.22668669247323    5.32256003109760
C        12.75967695569051    0.66439801748779    2.44670773358248
H        12.54301556085471    0.38169113408863    1.43815130599565
H        13.32356642176833    2.54739436985107    4.92510307489039
H        18.26461021706264    1.35853855522604    5.50364719163045

