34
CSD_code = GOXNAK | q = 1 | S = 0 | Stoichiometry = C13H12N4O4Re(1+) | MND = 6
Re       -0.64776099716896    5.90624643364630    9.00175870999288
O        -1.59525184167504    6.68088294752878   10.85308958818746
O        -2.71414589797805    7.43773365634597    7.28613722482087
C         0.40711262559728    5.37032229054805    7.45553986695522
O        -2.34027250548314    3.31904910794408    8.92619618625282
C        -1.94572414287462    6.84703885723195    7.88222095607440
O         1.08209023728737    5.08863663559236    6.57738057198095
N         0.37576797384628    7.77087163573616    9.47621258548713
C        -0.04967816893056    8.44192789402058   10.56282210179549
C        -1.69848961971990    4.25786445570569    8.89838519979765
C         2.56025909413325    4.33037441998833   11.48296122252627
H         3.55752056182583    4.11881265316459   11.80631027089727
C        -1.20457706983581    7.78463291489879   11.25048997862573
C         2.03384223195646    9.44923667816355    9.12156960212823
H         2.84874273828406    9.81324106874014    8.51784972235055
C         1.61078242948440   10.13736324132202   10.24742945090021
H         2.09005170279694   11.05440588399941   10.55123712518689
C        -2.93840629296823    7.86008735062032   12.96697830381896
H        -3.24671285550769    6.94321029764484   12.46881507768253
H        -3.75804500626416    8.57744714561896   12.94029517159553
H        -2.68954447892487    7.64429191936328   14.00672490459350
C         0.37660775454337    4.32174764595557   11.48328816242420
H        -0.63539001754577    4.11795645232300   11.77774978319394
C         1.38864107418562    8.27285734754455    8.77585969200600
H         1.69082093588798    7.71585602857221    7.89892662543911
C         0.55007583075060    9.62452260996726   10.97799243342350
H         0.21000432167211   10.14647180940655   11.85843001427983
N         0.73214675022948    5.01580819814916   10.42341355854428
C         2.09605477471201    5.02949145073780   10.40934142545377
H         2.65060018467829    5.52024437899006    9.63401666429809
N         1.45754238654755    3.89261407050382   12.15238536974501
H         1.45814804616733    3.32188203895966   12.98348284027431
N        -1.78694070985996    8.40054463087556   12.27833601091384
H        -1.47197204984883    9.31092585018905   12.57427359835502

