35
CSD_code = GOXSUJ | q = 0 | S = 0 | Stoichiometry = C18H12N2PdS2 | MND = 4
Pd        3.41244830604025    1.19770965665564   10.76953646804871
S         4.55649133535177   -0.40782962192554    7.93914945914475
S         6.01349042572372    2.44350185132901    8.87713499460764
N         1.54501781628126    0.17319095732283   11.09288787188046
N         3.60620733041012    2.38198497806916   12.55860557722763
C         3.46535443570267   -0.05491971197780    9.22722010634372
C         2.47225342390503   -1.02916213736375    9.27597141049877
C         2.59756773836877   -2.03222960375352    8.27099218352531
C         3.67478491300924   -1.82690423465030    7.48090004018029
C         1.41975574759272   -0.88352319203381   10.25408044019363
C         0.30240761580811   -1.72468493141627   10.32578715255797
C        -0.70065124818297   -1.45408674728515   11.23074917327236
C        -0.58920477928710   -0.32828185801087   12.03768895207171
C         0.55108859752697    0.44826277615590   11.92965923539358
C         4.98906549263659    2.29394022338929   10.25642378303976
C         5.24348887629769    3.33859652960347   11.14059063521212
C         6.26445098113219    4.23108812433340   10.70135380344506
C         6.76722927333953    3.87419169880805    9.49856994102685
C         4.52744600702907    3.36196234758207   12.39454349190018
C         4.77970972563670    4.28452477898499   13.41748006943950
C         4.11538105304408    4.17205309285584   14.61927544703382
C         3.22346269056375    3.12121060195836   14.79600276149938
C         3.00520585642987    2.25834066858129   13.73641196014053
H         1.92269764153824   -2.86131165906723    8.15192246935474
H         4.01637766414355   -2.41322127739600    6.65164061123567
H         0.23312266026489   -2.57403697500244    9.66576136500305
H        -1.56673290937713   -2.09564576604472   11.30017130433071
H        -1.36628965064637   -0.06047675642400   12.73553854477122
H         0.65555810938649    1.34085236657505   12.53660907189419
H         6.59737479609235    5.09263984630812   11.25261949785915
H         7.53682660840645    4.35348202091873    8.92746061145574
H         5.49869417581997    5.07161266787820   13.25814610442723
H         4.29704596037019    4.87778991276952   15.41639804741650
H         2.70779781062981    2.97584503119890   15.73168327021475
H         2.32567551896306    1.42133434144300   13.85333414462312

