45
CSD_code = GOXTUK | q = 1 | S = 0 | Stoichiometry = C19H20NPdS4(1+) | MND = 5
Pd        4.93827820788971    0.09416929090498    2.53428823919043
S         3.80866021147578    1.15884869033725    4.22675389293691
S         4.92074975191253   -1.94419403675772    3.97312343790708
S         7.31375970423158    0.63719229239473    3.95187840694194
S         6.97372166130832   -0.19262510063402   -1.47427314322490
N         5.92882041664889   -0.67405793860210    0.83546328763105
C         3.52816694430430   -0.07176853744878    5.56578769460468
C         3.50499358653079   -1.49232291912734    5.03923448752749
C         6.33541559536402   -1.80197665686078    5.14633159970184
C         7.54767915896270   -1.06222553994724    4.60815990736846
C         6.46200108160530    1.50062187122751    5.33281529426186
C         5.16403944216987    2.18187512983627    4.92586377394045
C         4.67639782136374    1.67233260304890    1.29139890764685
C         3.96908380095583    2.83972236529868    1.51016769472055
C         3.92826245221844    3.82621579384936    0.52942775080910
C         4.59716417281847    3.65969455436209   -0.67261035625654
C         5.30246797268729    2.49798532188984   -0.91318239524935
C         5.33835358124392    1.50244371985913    0.06411648531883
C         6.01592500789062    0.24347212077089   -0.10074488851221
C         6.63405072646177   -1.80541414149515    0.52162133490575
C         7.28901588905513   -1.73004583899148   -0.72520725355481
C         8.05263971003735   -2.77796593139237   -1.21374393572479
C         8.16395579662425   -3.91742010851742   -0.44364376379557
C         7.51888723145373   -4.01068918574720    0.78898192254900
C         6.75709607034033   -2.97201812513840    1.27716877474696
H         4.29185277775491    0.07511361574511    6.32775165325249
H         2.55729509739350    0.17003667194267    6.00161802315651
H         2.63874002420205   -1.64695554898686    4.39170562586022
H         3.46537221563295   -2.21055908921872    5.86013370728541
H         5.95387867540210   -1.34641853864499    6.05818235425749
H         6.63977300113288   -2.82408859204509    5.37924640719289
H         7.97330846944528   -1.59249423679446    3.75474246425865
H         8.30109842550256   -0.99957405464664    5.39512527325163
H         6.32811642077649    0.78758016438773    6.14356521192522
H         7.14696995695639    2.27800468489043    5.67459611078285
H         5.36402871016771    2.90940711776512    4.13533817742239
H         4.73881263108907    2.69979998041467    5.78782013140619
H         3.42135433238601    3.00552566029401    2.43121404990628
H         3.36474275301851    4.72857974381080    0.71197349314225
H         4.56064960120530    4.43430114221995   -1.42225791962293
H         5.82221497121075    2.34646894341182   -1.84761356748236
H         8.54104888404427   -2.69667965547340   -2.17115973717648
H         8.75197947689414   -4.74728781002482   -0.80145375224774
H         7.61449945965316   -4.91606204553545    1.36778874628210
H         6.24457812057974   -3.05944784663098    2.22310639075508

