48
CSD_code = GOXYAT | q = 0 | S = 0 | Stoichiometry = C18H26ClS2Y | MND = 13
Y         2.23281721621842    5.03166113489069    7.29236162658886
Cl        2.58488657641899    4.17230408943439    9.57694691492982
S         4.84263787065330    3.61882784850310    6.93900258933436
S        -0.04117975275874    6.05530968722102    8.90588633048295
C         3.69683363809875    7.42454506685212    8.48113071488189
H         4.06162820592774    7.58621480039523    9.48210690581171
C         2.48459077548447    7.90393852268669    7.96675169040201
H         1.77708057030014    8.51461109914634    8.50544060119603
C         2.37772460872177    7.50311381265018    6.62263177463610
H         1.65430187802765    7.87072779277187    5.90426202107089
C         3.56282238632192    6.76395905085083    6.29369187879284
H         3.91974535737854    6.56993385329126    5.28655623028606
C         4.38093994769598    6.74327319244194    7.46502106819117
C         5.75559523384971    6.14622584562869    7.55837184741287
H         6.36807701114008    6.75098566593145    8.23275644277253
H         6.22824231724333    6.14701389597395    6.57158609033508
C         5.74561370801236    4.71512048434545    8.09843462351556
H         5.23043907885654    4.65937487166342    9.05937750297466
H         6.76251899812526    4.33125314282111    8.18802278854832
C         4.67710003867018    2.10371517709620    7.95522696136739
H         4.25468536272143    2.40233472413331    8.91477161650626
H         3.95313715710704    1.49027011713535    7.41840245019870
C         5.99511405160539    1.37068695384592    8.11040788825954
H         6.42571505659754    1.14806853424721    7.13671044522078
H         5.82891873339998    0.43558729021622    8.64072326392050
H         6.70702916850119    1.96259617375001    8.68014218274670
C         0.23471350435640    4.64484674715328    5.67883955699424
H        -0.39663315005385    5.44443433559224    5.31249438663704
C         1.39239007164953    4.15569208963424    5.02370556079535
H         1.78695348335559    4.51955506686496    4.08507045590954
C         1.79825467465163    2.97594372616209    5.68921662816487
H         2.57640496849167    2.30511334997839    5.35209262757535
C         0.90335142003367    2.74258229438450    6.75333527548126
H         0.89550618933838    1.87462966272547    7.39821497860074
C        -0.07820511835971    3.75888372230284    6.73823525805265
C        -1.26711121273610    3.85293013226619    7.65051286344655
H        -1.67165105850606    2.85279081321576    7.83340239819940
H        -2.05340414942180    4.44366862920074    7.17224246072752
C        -0.92324827922536    4.45938540498859    9.01316222443362
H        -0.22060275580613    3.82242405134949    9.55457090463926
H        -1.81356044516278    4.60661229260553    9.62494627930469
C        -1.25150845506306    7.12142521367782    8.03115627869110
H        -0.68973386552145    8.02796115300471    7.80818106117129
H        -1.52812905070118    6.63558719377116    7.09718260905045
C        -2.46666677961280    7.43492809209377    8.88200467143759
H        -3.05673417856192    6.54068355081715    9.06763125124640
H        -3.09734421646376    8.15908745360287    8.37032223850059
H        -2.15975679099540    7.85328219668243    9.83725558055929

