63
CSD_code = GOYBIF | q = 0 | S = 0 | Stoichiometry = C23H28ClFeNO9 | MND = 7
Fe       12.42302706848680    2.28711293485509   12.52344787596107
Cl        8.27000478933332   -0.58761500387560    9.73032782261252
N         9.81107530300701    0.72835753252586   12.07429137719355
C        10.40117415372290    0.73534818601788   10.74313656739750
H        10.91206524970110   -0.22253460337140   10.57600464278183
C         9.33920320028079    0.85076447254026    9.62536104594448
H         9.86925491657376    0.73809004181462    8.67568641685526
C         8.48929739089697    2.11381795848414    9.57391000772150
H         9.17472534916154    2.95953316627153    9.58481485348465
H         7.97358324417108    2.13248714923756    8.60957219165214
C         7.44934515573668    2.24882817640757   10.68747023825806
H         6.62136809615827    1.56962549227404   10.47360030532251
H         7.87694536775972    1.94279335182007   11.63776092269744
C         6.89872952306850    3.67167980347620   10.79915734309143
H         6.01097806911041    3.65647807258633   11.43601590768967
H         6.58463170822479    4.01030678483687    9.80874930337505
C         7.88960686774934    4.68875498437657   11.37283558069444
H         7.44158138839218    5.68081436343328   11.28884569454629
H         8.78965250747997    4.70144732326670   10.75936997332551
C         8.26733593723498    4.42067993395510   12.83841002946047
H         7.88410333106314    5.22279588075499   13.47120829208773
H         7.80351574791742    3.49174319020120   13.17282148656378
C         9.78461703357245    4.31818030996241   13.06977598690097
H         9.96622517125070    4.22758772503462   14.14315972586518
H        10.28122341300240    5.22244832125572   12.71823808236590
C        10.34028978596012    3.11090258868765   12.36482422453114
C        10.13073067616497    1.80589306276692   12.88053187088069
H         9.70633079456848    1.72900094584691   13.87599974935639
C        11.45382857004533    1.84238348072911   10.65262827225484
C        11.07575981062900    3.15505360608881   11.15038708019475
C        11.35060741892027    4.42514714023341   10.41118683795003
O        11.82798246552946    5.41411851881981   10.90474189286342
O        10.92875094053848    4.34746294970693    9.14355175306221
C        11.25340990910186    5.44897211844199    8.30515466533286
H        10.64413624554257    5.34258637373431    7.41113670631377
H        12.31472601605977    5.40945074671586    8.05496984191948
H        11.03737359517877    6.38978077095719    8.81488526890727
C        12.35705186994116    1.81662429528952    9.48668361404976
O        13.12140089637910    2.71165240524419    9.19682732162246
O        12.28546089064230    0.67130747068252    8.78094376123989
C        13.19315452046459    0.56536513007888    7.69305957022119
H        13.04548514417835   -0.42564631519302    7.27185151793630
H        14.21954250408417    0.68762990844489    8.04404628104193
H        12.98347651017341    1.33562298849657    6.94811021395464
C         9.72592682370607   -0.55294177341806   12.72933536939192
H         9.54450336462902   -1.32545322363968   11.97697216562648
H        10.65531278731397   -0.80716552517012   13.26440720420164
C         8.57170620971250   -0.66496933688260   13.71702850494070
O         8.50894733509390   -1.52110442948262   14.55787881538138
O         7.64120710866185    0.26308749429405   13.52409580778154
C         6.47552694913897    0.17452616821277   14.35168501341909
H         6.78765727635042    0.15732547002814   15.40172553905777
H         5.96727381992058   -0.77068834774977   14.13376397998173
C         5.57980559749078    1.36111869420827   14.05366780091199
H         4.66408102664235    1.27701832237368   14.63132726922538
H         5.33293805295175    1.38363333169721   12.99595484137645
H         6.07707003210933    2.29088588844299   14.31728716424160
C        12.86546253910089    3.08885005574969   14.02798818621333
O        13.18804824200825    3.59815620812772   15.00150921946765
C        12.99012959465370    0.62769650008760   12.93456207894086
O        13.53432883943606   -0.35758659874889   13.14935780289987
C        13.92343621777969    2.94960283687512   11.83457364630458
O        14.93306963614204    3.33557453108143   11.47778747315351

