109
CSD_code = GOYCOM | q = 0 | S = 0 | Stoichiometry = C57H48OP2Ru | MND = 8
Ru       -4.15756748174154    4.01820515489846    4.80114283529229
P        -5.81266577347719    3.25058919465713    3.46169039495471
P        -4.48792675736613    6.24382679805275    4.54803648290095
O        -1.71578557011751    3.81861389887669    0.02256744154816
C        -2.93296328527405    4.07978773167268    3.20638039969269
C        -2.04988660063135    3.97450028910938    2.38740229647334
C        -1.06630789773574    3.92877505480223    1.29907400341179
C        -2.45564008291557    2.63988492180347   -0.14707911169055
C        -2.67078939019440    3.93074217226439    6.46619083426770
C        -3.94383144059425    4.24187174506850    7.02566432748865
C        -4.81482283184037    3.16277826248044    6.78425199124079
C        -4.08089813845271    2.16469087066971    6.07717336380827
C        -2.75773482003620    2.63001792896110    5.90797396230882
C        -0.06448937777099    2.79490440773345    1.46907795645157
C        -0.09755443391404    1.93327436030529    2.55436872198323
C         0.83348409864487    0.91510494347876    2.66649071271808
C         1.80077836808011    0.74760206358505    1.69129904572526
C         1.83460186793446    1.60266826291154    0.60189167214493
C         0.90811803679409    2.62223361404960    0.49170815132407
C        -0.33804428987537    5.26229192665189    1.33706259785399
C         0.67149468681342    5.47089202193036    2.26934912845615
C         1.31441839831883    6.69306636853426    2.33890806834732
C         0.95034393027990    7.72216239618519    1.48695393282882
C        -0.06066434984966    7.51971282906011    0.56399410333287
C        -0.70463433425687    6.29719986066038    0.48931385988026
C        -5.56072787455103    1.55669507732042    2.80599998373038
C        -4.27483473341318    1.03257605480764    2.77507714744574
C        -4.04169560494920   -0.22060348761042    2.23643397355608
C        -5.09528078767700   -0.95996207552649    1.72687433511859
C        -6.38019186506935   -0.43939396507387    1.74851727694573
C        -6.61420214843215    0.81569298933155    2.27759224079220
C        -6.34724739518651    3.98638250868930    1.87358574001768
C        -5.34214236657336    4.49468805476965    1.05638750467909
C        -5.63625157641676    4.94407420437495   -0.21697874425065
C        -6.94067395391272    4.90656244136706   -0.68022221550145
C        -7.94720193706935    4.41377597167656    0.13367098537302
C        -7.65519527923392    3.94320266248120    1.40150819710676
C        -7.37630748331603    3.07363649092629    4.38132694254896
C        -7.67089969081111    1.91393747427871    5.09224286798007
C        -8.79144178104803    1.85808495287460    5.90121260659357
C        -9.62254356728612    2.96051877132119    6.01830796086768
C        -9.32600742746813    4.12529463570450    5.32791487902696
C        -8.20514672902008    4.18418164421819    4.52219385660115
C        -3.05630817689779    7.14443383121237    5.25252977298759
C        -1.79255345828840    6.77699028953369    4.79049980454837
C        -0.65815459409015    7.38157024877519    5.29726752816194
C        -0.76626121060078    8.34259547658159    6.28978472221091
C        -2.01474321534236    8.68611188786005    6.77811507198822
C        -3.15567667394630    8.09224767236408    6.26524536406267
C        -4.69134101614315    7.04586240153176    2.91593939608288
C        -3.61721249012301    7.47700080799906    2.14681841924799
C        -3.83998607720097    8.05010595987068    0.90691990858355
C        -5.12765563097217    8.19582511570590    0.42082112172955
C        -6.20197453412266    7.75435379861440    1.17583722661803
C        -5.98362826911525    7.17594113343859    2.41016931777178
C        -5.88046848034534    7.05239934083848    5.42237964341172
C        -6.14351404021124    8.41091352578183    5.24831448058146
C        -7.18617916152128    9.00855150958724    5.92953364449938
C        -7.97746808021522    8.26207997363070    6.79062080104734
C        -7.72352870296410    6.91330229561909    6.96565245097242
C        -6.67925122715528    6.31351590588399    6.28279563008960
H        -3.20475438653583    2.51461539759713    0.64345977430452
H        -2.96071895365485    2.73447830751592   -1.10735922209508
H        -1.80852389034034    1.75341843385650   -0.16358997994150
H        -1.75938878862770    4.49154239147612    6.63030758519691
H        -4.15544043251965    5.10968314215524    7.63980856326101
H        -5.80223483675245    3.02527635651583    7.20646964219312
H        -4.42670025825125    1.15803026650375    5.87279134096579
H        -1.92639098046766    2.04962077101700    5.52870439597817
H        -0.85608064501447    2.07156642965812    3.31129703300327
H         0.80194615031937    0.24823396509149    3.51691569357968
H         2.52650302826776   -0.04820225547080    1.77843668475898
H         2.58767194919646    1.47431150935689   -0.16224191074254
H         0.92520433764026    3.29339812871968   -0.35496629176501
H         0.95626438126280    4.67104323286758    2.93869495786104
H         2.11125692848732    6.84136737959471    3.05447372776620
H         1.45484611459867    8.67604685895384    1.54157622902088
H        -0.34426917245038    8.31929319854512   -0.10611157007937
H        -1.49124350919630    6.12784382992858   -0.22842066036705
H        -3.45934589077248    1.62658027959075    3.16901572834672
H        -3.03718338520537   -0.61790218608660    2.21259034035602
H        -4.91785854998941   -1.94015010205656    1.30898276794178
H        -7.20211425496012   -1.01457632250423    1.34692123897245
H        -7.61609780982133    1.22162803373494    2.28698910285412
H        -4.33135248432917    4.54026680561889    1.43981703440986
H        -4.84452309148290    5.32492130428590   -0.84424831268072
H        -7.17577344916917    5.26037878143779   -1.67361511282055
H        -8.96678837602833    4.38558312942495   -0.22436423780520
H        -8.45037300480924    3.55199493379101    2.02071083879490
H        -7.02087943838368    1.05329455746605    5.00495642569757
H        -9.01648194368530    0.95198260847912    6.44568637539014
H       -10.49691608084662    2.91315482479276    6.65088122312217
H        -9.96583914399380    4.99084914405083    5.42345279139550
H        -7.95701369980179    5.09471967988044    3.99291926515778
H        -1.70700321701679    5.99253930440925    4.04764380237747
H         0.31193941862578    7.09476964623331    4.91983988698030
H         0.12008249811194    8.81250297390390    6.69057671282387
H        -2.10460399409323    9.42000176176961    7.56645499623834
H        -4.12049540277494    8.36696029387844    6.66680931306205
H        -2.60725771803395    7.37443842360864    2.51304957501289
H        -2.99878231276903    8.38957628975029    0.32144401417262
H        -5.29595817461197    8.65077232268730   -0.54438782026350
H        -7.20966202504277    7.85743820405260    0.80028658288543
H        -6.82281346807713    6.82812901812449    2.99750144630957
H        -5.52710060212047    8.99156929805538    4.57520370139166
H        -7.38448392749239   10.06170368254223    5.79115137793572
H        -8.79205739815267    8.73416696571399    7.32034096698255
H        -8.33955548040936    6.32525590096371    7.63084730254034
H        -6.48598991897793    5.25664043937918    6.40361966358313

