114
CSD_code = GOYDAZ | q = 0 | S = 0 | Stoichiometry = C61H50P2Ru | MND = 8
Ru        1.54517085756939   -3.02619615071748    1.79590105732585
P         3.72654095493491   -2.68712487336290    2.29770625161597
P         0.51518105877180   -2.05345012134051    3.55977983427695
C         1.54666019905757   -4.74448313173548    2.84619880000733
C         1.39338807097632   -5.87140838961992    3.25127594368986
C         1.18601396754355   -7.25710396117184    3.70258016705837
C         0.95012708206384   -4.11965325479041   -0.09104002043771
C        -0.17782291364669   -3.44335572131733    0.43814156634501
C         0.09666155457368   -2.04608026836747    0.38451979243471
C         1.39099757326025   -1.86332745977603   -0.13658924055080
C         1.92691128135933   -3.15394225039234   -0.42087150989240
C        -0.27201175278792   -7.59366457817984    3.41784662787371
C        -1.11350220159798   -8.16004718525127    4.36387387666525
C        -2.43780791040479   -8.42754167492385    4.05663389262644
C        -2.93975813941168   -8.13273351102272    2.80213551665502
C        -2.10778649033161   -7.56058305030355    1.85305749394551
C        -0.78859418841763   -7.29147629700002    2.16114673140073
C         1.52850795386496   -7.42044765955590    5.17328915301783
C         1.55602691149294   -6.33306936041353    6.03302261779269
C         1.88180310029681   -6.50246460648786    7.36797880851613
C         2.17414945182369   -7.76152435899861    7.86100797671519
C         2.13452700647131   -8.85526726507917    7.01110723639104
C         1.81503293853648   -8.68592326225830    5.67702116042827
C         2.11944008459605   -8.11133064136698    2.88270009380092
C         3.60676488028115   -7.94866028576522    2.99608917607533
C         4.12329316082212   -8.93450553959627    2.00298048367600
C         3.09240867913941   -9.56184542924117    1.42182270571262
C         1.85037284062453   -9.05335063013727    1.96357195187266
C         4.30395353615453   -1.05914601936306    1.71094994087693
C         4.75511551878310   -0.88636766639645    0.40510336759922
C         5.05322709599183    0.37771787720605   -0.06998014280114
C         4.89520221610957    1.48502924112421    0.74788320582148
C         4.42684098611308    1.32467399314312    2.04234144261351
C         4.12292789483400    0.06281142881735    2.51668891087186
C         4.88224707031925   -3.82927098982737    1.44670004066171
C         6.24037201655091   -3.54400108742908    1.33510383743230
C         7.08772092814541   -4.44515488201350    0.71873771035849
C         6.59340572176113   -5.64202475800093    0.22234300827620
C         5.24756156416957   -5.94000301481018    0.34937126233696
C         4.39600797806555   -5.03662854752204    0.96183463630607
C         4.50943713550300   -2.84326518005365    3.94560808898130
C         5.57872816942961   -2.06916743721319    4.38280389838300
C         6.15753668257813   -2.32718266449376    5.61316176373429
C         5.69045220260605   -3.36313196885893    6.40512192636646
C         4.63571355608716   -4.14660072975052    5.96604362600242
C         4.04732321469194   -3.88584439078632    4.74329025541549
C         0.45293246442540   -0.22534147993689    3.66181143578284
C         0.98983587103928    0.54063192613416    2.63731187580530
C         0.94300336945171    1.92274938124245    2.69302718575940
C         0.35745268642482    2.54913329804451    3.77919445528397
C        -0.18030492652089    1.79060590908764    4.80869314846929
C        -0.13394652478536    0.41096050125181    4.75407052202534
C         0.90952742689871   -2.36788512750882    5.31995424013516
C         2.07140461908960   -1.76750660864630    5.79804090894761
C         2.44663052236958   -1.90675042472696    7.11900453186428
C         1.65759795856292   -2.64905535412568    7.98316542255776
C         0.49923141662211   -3.24692706160547    7.51732888328089
C         0.12454931841192   -3.11353977132157    6.19035900158723
C        -1.26190578903736   -2.47877332671674    3.48945121930410
C        -2.27766932154594   -1.54691965505816    3.31200961357929
C        -3.59243422959620   -1.96815800853680    3.20026145866040
C        -3.90452990183812   -3.31535037909085    3.26338659592137
C        -2.89428327934449   -4.25135934707594    3.42473163194098
C        -1.58029090419003   -3.83668593943462    3.52715603156265
H         1.01027657523857   -5.17827015392393   -0.30942367837974
H        -1.14364224183232   -3.88635097881186    0.64586543189892
H        -0.62275640989704   -1.26282693486651    0.59446547202658
H         1.83544856605839   -0.92427927759100   -0.44098996443718
H         2.84366308217056   -3.34633663632567   -0.96612973858236
H        -0.74271120707142   -8.39448805709388    5.35084938657673
H        -3.08016469851386   -8.86870733173737    4.80574816750417
H        -3.97305220967473   -8.34297562338469    2.56503177678048
H        -2.49146007269093   -7.32096021343546    0.87115473536359
H        -0.14385726043618   -6.83211348482687    1.42647828281355
H         1.32769398312013   -5.34749923161512    5.65456146992469
H         1.90687171942159   -5.64161963505072    8.02084287299775
H         2.43010988960792   -7.89363283485395    8.90255792915733
H         2.35510405618814   -9.84332059655255    7.38970060201289
H         1.78532537361122   -9.54097553528074    5.01542944444711
H         3.91820141026743   -6.92680502604610    2.77007027953747
H         3.96189776490258   -8.16688691414512    4.00577263359749
H         5.17190471452827   -9.08842543156183    1.82287427331509
H         3.14322994905035  -10.32876943845426    0.66816341744234
H         0.87861632109766   -9.40095767275183    1.65949736981827
H         4.87779546470213   -1.74883744721711   -0.23664170526937
H         5.40766207042647    0.50085630975269   -1.08363149606932
H         5.12994630019643    2.47107440655789    0.37431269064895
H         4.29074081192129    2.18557828887639    2.68107177687742
H         3.73758548128699   -0.06136233912476    3.52009711436073
H         6.62916570873906   -2.61380940044594    1.72576332732603
H         8.13977172721723   -4.21615030520892    0.62623472818438
H         7.26038673948414   -6.34208148211539   -0.25933481554407
H         4.85884959403324   -6.87712711707566   -0.02214440469603
H         3.34164104525691   -5.26089941560925    1.07619548250165
H         5.95768443959581   -1.26029646288046    3.77384172585799
H         6.98264268324888   -1.71711715524139    5.95300532797832
H         6.15097082897724   -3.55897700559539    7.36265927822804
H         4.26697104898036   -4.95897340816066    6.57505403387991
H         3.21342637198743   -4.47732828938414    4.38673318953193
H         1.45795185886801    0.04325472176028    1.79879386461663
H         1.36632245967283    2.50849852278049    1.88957639154357
H         0.31916156244730    3.62768183671626    3.82745122889654
H        -0.63768130528577    2.27972762560751    5.65670437110965
H        -0.55383824614570   -0.18198564262131    5.55542706327572
H         2.67312537071788   -1.18131337704309    5.11605810660459
H         3.35068071795609   -1.43575857663930    7.47610940730141
H         1.94332775638536   -2.75526873165617    9.01970425916563
H        -0.12298516809332   -3.82041431646458    8.18942171859391
H        -0.78493854859142   -3.58016163468585    5.84118495792866
H        -2.04761560694778   -0.49194448607265    3.25484476432159
H        -4.37635900937631   -1.23757134221376    3.05921776527377
H        -4.93224711421101   -3.63656830533447    3.17581430971205
H        -3.12599133078883   -5.30616381681910    3.45911024449391
H        -0.78052329364955   -4.56277146373230    3.61159204282687

