22
CSD_code = GOYHIL | q = 0 | S = 0 | Stoichiometry = C10H6CrO5 | MND = 9
Cr        2.05907827092930    0.68606049093588    2.36660325524084
O        -0.01228083877340    3.66846837975595    4.04187683224966
H        -0.81580002788317    3.90985826522643    4.52650652339198
O         0.21623342547819    2.21888850201834    5.73410163481462
O        -0.12713685126872   -1.23827150863795    2.99500504531062
C         0.72781389252730   -0.49418630346801    2.80175340238148
C         0.62103416218803    2.66979855197524    4.68805999638763
C         1.83569123349631    2.21337407093518    3.99963056973708
C         2.57884821356461   -0.65049767783462    1.23610968952197
O         2.84148256688708   -1.49127249864495    0.49286271537448
C         2.54470828815007    1.10933098818750    4.53729184887517
H         2.18588034733926    0.67824789867127    5.46510025900760
O         0.23069568191983    1.17993782327854    0.07081349324334
C         3.53217382675944    2.43276186955510    2.26437442184487
H         3.95505039612270    2.98274755814399    1.43265889629244
C         2.32563789485014    2.85101086124374    2.84057530281621
H         1.82400148796535    3.73927367040997    2.47600754038677
C         0.94215364294676    1.03080867207034    0.96448388773494
C         4.19636707820822    1.31465546718285    2.78064469772473
H         5.14624319975217    1.01122401623187    2.35564642749415
C         3.72631200850351    0.67715477674820    3.94819765563964
H         4.30441210033728   -0.12007387398462    4.39819590452964

