63
CSD_code = GOYHUZ | q = 1 | S = 0 | Stoichiometry = C28H25N6NiO3(1+) | MND = 6
Ni       10.23079293651840    8.94730314204307    3.01451851800132
O        10.80316503985695    7.55746404862731    4.09577480672775
O        10.26130401200896    6.37560657756067    5.87566926515877
O         8.36608421156560    7.66498837007158    3.19216438544133
H         7.55877661013390    7.42683071062454    2.71984784787123
C         9.99431730410946    6.88600340883380    4.80827038714141
C         8.55944011491122    6.68999454477134    4.21257067118607
H         7.83831876926704    6.84629898581419    5.02769222533110
C         8.49856399727092    5.26972538033578    3.72241943945562
C         8.36395666735272    4.23814674942002    4.64523840683786
H         8.28465101724418    4.47653455178844    5.69440094381555
C         8.35628471882675    2.92343359540806    4.21997975608680
H         8.25346473439107    2.12819489549382    4.94223489954101
C         8.48080009708324    2.62333567715375    2.87251327352688
H         8.47304605609421    1.59594343975056    2.54269128780569
C         8.61941297309937    3.64605668345931    1.95172965435492
H         8.72125872375131    3.42166334520008    0.89990028437364
C         8.63192185249208    4.96382170754130    2.37477152843581
H         8.74951937470914    5.75478616251906    1.64669837252378
N        10.73078761880591    7.92430626440087    1.46315577733357
N         8.88654164579218    8.80375761123678    0.31000076876626
H         8.26702775124099    8.67588421625592   -0.47926095252695
N         9.65584391851884   10.34213895369898    1.91427220482454
C        11.73159333393356    7.04267788520128    1.53218419522958
H        12.39938889363973    7.14006792223332    2.37638905392709
C        11.90704794306614    6.03767016050841    0.60333116525329
H        12.72319454564835    5.34323891379858    0.70779369105069
C        11.00351673994108    5.93210219273850   -0.44776134152970
H        11.09601621354922    5.14594046524090   -1.18028253802042
C         9.98835725559829    6.85932114746229   -0.54467097708311
H         9.27598892282241    6.82439663800536   -1.35451317637937
C         9.88691532926686    7.85799921599647    0.43150706448745
C         8.88827969685458   10.06972457173789    0.85495954346611
C         8.09229461821155   11.05294650640377    0.25008395504599
H         7.45644714210328   10.78998002787224   -0.58094786416134
C         8.15014088221775   12.34656198915744    0.71715439248200
H         7.54483232329856   13.11768772298755    0.26784953478276
C         9.02536992036629   12.63980129134028    1.75878769338868
H         9.13426853376243   13.64580572738558    2.12699879583982
C         9.74735601576774   11.61182303125378    2.32578304327617
H        10.43506862406151   11.79605052060293    3.13867245078622
N        12.15716517356343    9.94220658821797    3.51623323707629
N        11.69404144639066    9.62912418486097    5.79634768268009
H        12.10343667686059    9.37225187132032    6.68548938400310
N         9.61836395666477    9.83638754210801    4.68102968028571
C        13.07496428330717   10.02005185463072    2.54644764401284
H        12.69864733885204   10.31405349658747    1.57378084995078
C        14.41808345124736    9.76897111174456    2.73213731821334
H        15.11046874360579    9.84797051662365    1.91042299729275
C        14.85306252379696    9.41735575760846    4.00667605755536
H        15.89411604131012    9.20622271747502    4.19524442806158
C        13.93041033961671    9.35427617541507    5.02657984553546
H        14.22968726381909    9.09299859996749    6.02955939551039
C        12.58553635563678    9.63152708191955    4.74432623621954
C        10.33080167028604    9.70746757018773    5.81171751973071
C         9.70176507625160    9.67644065896617    7.07136947589178
H        10.29904730735461    9.52278664958539    7.95601212753888
C         8.34108886429973    9.82414399757686    7.15764313174727
H         7.84323143444567    9.78976004031398    8.11375770854329
C         7.61664708695249   10.03066768152080    5.98399582685551
H         6.55077198455643   10.18500410940580    6.00636075369055
C         8.29402439100186   10.02052296728915    4.78783021170584
H         7.75528151100489   10.17359387474721    3.86116605404013

