45
CSD_code = GOYJEL | q = 0 | S = 0 | Stoichiometry = C18H22ClNO2Pt | MND = 5
C         0.87729779183525    2.96841498823104    2.36678529723730
Cl       -0.35323816757301    3.91299461448752   -0.35759634535368
N        -1.39426685094179    1.08643331673735   -0.80096189850237
H        -2.40012933716703    1.09998184612040   -0.64914805933736
H        -1.14407709313821    1.80439051160984   -1.48365289376167
O         1.56177195941305    6.15280439005075    4.11030513067526
Pt       -0.21289954770833    2.07070822068497    0.93272606966979
C         0.82618964223309    4.30640859267086    2.71663887775866
H         0.16297375934979    4.96478439212695    2.17919752835195
O         3.31759333609625    4.28924675669523    5.46733717306859
C         1.61084190923666    4.82838553019122    3.74200947002272
C         2.48017923763708    3.96934504856646    4.43481932802506
C         2.50715238075387    2.62211411320740    4.08511213330218
H         3.17290495019023    1.98113627824298    4.64272658285319
C         1.71660360521987    2.10935627671234    3.07326231906298
C         1.74918462585992    0.64958524286289    2.68740108558096
H         1.79803322891956    0.02088651589246    3.58184759118117
H         2.64969540923753    0.44842037043244    2.09951090679523
C         0.52112862786910    0.29241442393002    1.88116784806972
H         0.64888757780972   -0.51237823868008    1.15830583895054
C        -0.75873883524122    0.58593183617490    2.33957165558136
H        -0.88831806536629    1.02714754370712    3.32288797852902
H        -1.60108420705243    0.00613191585681    1.97471796361417
C         3.60020137276816    5.63255435185333    5.78487018568107
H         2.72776258443561    6.14745060219201    6.19297795761974
H         3.96898775891243    6.18356093935456    4.91656849474981
H         4.38231924995942    5.58562940821801    6.54288484357970
C         0.73117597664951    7.02432431189696    3.38515665272319
H        -0.32418373639059    6.74859047539940    3.47833991350734
H         1.00670439419112    7.05970928696015    2.32649168888515
H         0.88550752000260    8.00675546737873    3.83032618211296
C        -0.93123137069240   -0.20202967128935   -1.15306730157108
C         0.38572424586090   -0.36572376032863   -1.60371951950114
C         0.83328316807739   -1.64682872811833   -1.88637508392556
H         1.84759513952207   -1.78249892620428   -2.23281092924033
C         0.01132152419127   -2.74976514478008   -1.72446310480336
H         0.38396604636867   -3.73729963778626   -1.94886877507527
C        -1.28392176071538   -2.58072967302800   -1.26999903074008
H        -1.93220487184174   -3.43326243061968   -1.13696918825451
C        -1.75316366574062   -1.31017811097849   -0.98940341548225
H        -2.76577696140564   -1.17335731588071   -0.63391692605345
C         1.28819708524565    0.82115819262189   -1.73607825810024
H         2.30549657409721    0.50903611059801   -1.95596055661133
H         1.29874271543588    1.40969351470618   -0.80144072129407
H         0.95281107360461    1.48376625132074   -2.53521468958568

