104
CSD_code = GOYKEM | q = 0 | S = 0 | Stoichiometry = C50H49FeOP3 | MND = 8
Fe       -2.39788507972541    2.38548156278098   13.19715476016702
P        -2.35222284872032    1.65270235582942   15.19979686141251
P        -3.94496188395923    3.71130189593412   13.82841131870106
C        -2.13352383321778    2.68507859317995   11.16324648509868
C        -1.50835833740384    1.44944164772536   11.50599868888391
C        -0.51201023289647    1.72127295186919   12.47687941783791
C        -0.47560983023201    3.13912645161554   12.69725294149892
C        -1.45429078109192    3.73377637230303   11.86158929792064
C        -3.18816928504088    2.82919643094476   10.11676707668334
H        -3.68662109405785    3.79241240407852   10.18889653762649
H        -3.93964410297992    2.05211189596597   10.24254691999057
H        -2.75664684159095    2.73411894621137    9.11911708535292
C        -1.78172855710825    0.14668973168396   10.82730846471009
H        -1.53114838229916    0.22822240884486    9.76891786344079
H        -2.83655831122755   -0.11588961368324   10.90127988176533
H        -1.18996657808932   -0.65708229260335   11.25827662339971
C         0.51584321616554    0.76889723503010   12.99694548722456
H         1.33694716016914    0.68849199182780   12.28105988386265
H         0.10251827939091   -0.22484978413277   13.15221409189069
H         0.92199868958414    1.12598332858353   13.93992857827533
C         0.60828233990807    3.83608300254149   13.46033919211444
H         0.65402855330076    3.49031475469402   14.49331567070863
H         0.45839713336531    4.91263486366427   13.45927666607197
H         1.57539318835404    3.63024580911138   12.99825290484107
C        -1.63158364311348    5.19409643054728   11.60397544260818
H        -0.90461132325475    5.52270963544455   10.85837914310685
H        -1.48609957090838    5.78602294949874   12.50464584766004
H        -2.62668536608477    5.39578225164408   11.21652069911929
C        -3.87100960832798    2.22149989458329   16.13741819938574
H        -4.31942031708184    1.37048486863370   16.65826013406299
H        -3.55400953149534    2.95118924990633   16.88764243115615
C        -4.88031140696309    2.86269978971762   15.18697953216220
H        -5.52862754088942    3.57146176598188   15.71229235453223
H        -5.50271630696754    2.09574337291426   14.72152371848089
C        -2.41422250849863   -0.15249907631048   15.47751828180990
C        -2.55649339971669   -0.69032701238080   16.75410316836128
H        -2.62917900218630   -0.03161869929023   17.61004735132466
C        -2.59160497928744   -2.06130652291187   16.92641475981155
H        -2.71074258702825   -2.47736561470115   17.91679930178715
C        -2.46411163801551   -2.90419517013085   15.83263896504980
H        -2.48707435492642   -3.97507998780157   15.97377008176472
C        -2.30501440068084   -2.37358736249167   14.56354636922554
H        -2.19903451389728   -3.02716425591121   13.70999839789490
C        -2.28877367137664   -1.00111814101483   14.38678271906334
H        -2.20821331526373   -0.56300804711038   13.40437071422562
C        -0.99796785869363    2.04814838043350   16.36909009630170
C         0.07337546325831    1.16367918931814   16.48525791894812
H         0.02907207826757    0.20710351570387   15.98375405765852
C         1.17838186141259    1.48884919346643   17.24959032892364
H         1.99762169612781    0.78926164922905   17.33401722440612
C         1.23798968880224    2.70860029062614   17.90350197655949
H         2.10145985915049    2.96351455711833   18.49990729910288
C         0.18452137270720    3.59978121620663   17.78592982136578
H         0.22385931656018    4.55420383843475   18.29118293498400
C        -0.92017595133104    3.27617922159415   17.01942219489332
H        -1.72513475093877    3.99066388075042   16.92767133383072
C        -3.53582203482444    5.26060442907932   14.71368867112452
C        -2.20036770881201    5.50837635947128   14.99559200480145
H        -1.46863286618023    4.78847193872717   14.65923814309238
C        -1.82730828890177    6.63987772965068   15.70052095815235
H        -0.78410841527687    6.82537891019797   15.91428712588880
C        -2.79618425443942    7.52937428507967   16.13288239586720
H        -2.51222687693694    8.41511392157425   16.68224020211542
C        -4.13442791274253    7.28235583505644   15.86397645238948
H        -4.88903656517055    7.97524264617170   16.20758267135027
C        -4.50672953728602    6.15325230006284   15.15850634643318
H        -5.54979121176194    5.96449584106524   14.94181120520275
C        -5.24109905018122    4.27678529365843   12.68771006551622
C        -5.18154266801978    5.55838369901553   12.14134287209206
H        -4.42606334400082    6.25345014179426   12.48262925240554
C        -6.08950917096896    5.95219316504872   11.17600981836862
H        -6.03561962647457    6.95048726888648   10.76470066257785
C        -7.05932824351191    5.06843113424503   10.73114224157836
H        -7.76325604807670    5.37677183231895    9.97206360169356
C        -7.11776946111268    3.78978663564491   11.25958688933855
H        -7.85929760502014    3.08636235440795   10.91311092640921
C        -6.21455220614105    3.39439381402549   12.22858866925018
H        -6.25606620073082    2.38682656240414   12.61026667059345
C        -3.84395134799331    1.23340156515165   12.98444767223934
C        -4.72204895613800    0.46112359324687   12.65061068890586
P        -6.08258299432314   -0.55605240588406   12.22581873314828
O        -7.06275437169633    0.02908034244484   11.29547952566019
C        -6.79476171794206   -1.03595599300713   13.83460263135569
C        -8.13648212548208   -1.38191191325810   13.88475121153825
H        -8.71873303012810   -1.34178650326120   12.97495496964190
C        -8.70756985410493   -1.75927529570229   15.08700094222789
H        -9.75305047857728   -2.02913888546515   15.12968691283710
C        -7.93642577417955   -1.79043283363531   16.23795674950177
H        -8.38139015484987   -2.08739490079678   17.17687332557388
C        -6.59723073135970   -1.43655035970340   16.18923982201181
H        -5.99616011527915   -1.45879119080852   17.08775394094449
C        -6.02499007394007   -1.05669427044006   14.98907862206532
H        -4.98427729191137   -0.76841115652191   14.93780764889186
C        -5.32282918481688   -2.08312506507058   11.57865364761203
C        -4.81858543671211   -3.08372978848322   12.39599169325565
H        -4.90412719773397   -2.99573457099241   13.46988621364209
C        -4.21626226197691   -4.19218365650290   11.82841274596139
H        -3.83179484743352   -4.97948514949762   12.46203491008108
C        -4.10842661046593   -4.29946940342819   10.45095236884361
H        -3.63695956271449   -5.16782866156804   10.01341433023370
C        -4.60963598968338   -3.29850525504604    9.63475740423313
H        -4.52870676717154   -3.38426815106318    8.56067761026453
C        -5.21769643740568   -2.19219621023312   10.19945563252766
H        -5.62915375937205   -1.40386817375423    9.58439670151173

