61
CSD_code = GOYQES | q = 0 | S = 0 | Stoichiometry = C28H28P2PtS2 | MND = 4
Pt       11.83707283164838    6.02573397652103    4.11878734427274
S         9.98116367669621    5.21871921221201    5.21858198509177
S        13.33795525397835    4.98084097231077    5.51433525088855
P        13.66972868166479    6.66547226373511    2.83451327811256
P        10.19075541549340    7.15078945384036    2.88659417015791
C        10.19219845968636    4.61172850128856    6.83747612235368
C         8.97821433349156    4.39989076775541    7.49067901574267
C         8.87111664969551    3.89731062129813    8.78265673963897
C        10.03115234708982    3.59150612793793    9.46005045194462
C        11.26222383811090    3.80147335716337    8.79611754076324
C        12.31637806572503    3.40619248982893    9.65185212485369
C        13.60611588614267    3.51423314168220    9.17964023496491
C        13.79602710120571    4.01369465249354    7.89609523734739
C        12.75718897477201    4.41060815816822    7.05382564035905
C        11.41187324083524    4.30469935506011    7.49788659582828
C        10.35318512730788    3.05989807878496   10.76269691012124
C        11.70227711665563    2.95019470585068   10.87583855302610
C        13.34248675492433    6.10344716580782    1.13556950064491
C        12.62626110086535    4.91250414146619    1.04040868026665
C        12.32613486760221    4.37137034880147   -0.19508407008392
C        12.73170639284312    5.02623996269356   -1.34835762398474
C        13.43893891129041    6.21378603315694   -1.25961496263159
C        13.74939787470652    6.75265866954691   -0.02196176860857
C        14.18829422699180    8.41942501198235    2.69243444836346
C        15.28417349612242    5.86597131603538    3.15079764443381
C         8.74275257398880    6.14274367112959    2.45234459312111
C         7.54763317537284    6.19292634398297    3.15945448809121
C         6.49914137509140    5.36151999515269    2.80644745333337
C         6.63516515372981    4.47247967608765    1.75415881466073
C         7.82969559848550    4.40887232521959    1.05468256072968
C         8.88014224669635    5.23482176051915    1.40536688164064
C         9.51118990399566    8.52509691283518    3.88271400929731
C        10.48040458577227    8.01999561802304    1.28909508057484
H         8.07761216109257    4.64256388172508    6.94288457142113
H         7.89401534377625    3.76088494868362    9.22498630802083
H        14.46226490261804    3.22875159443319    9.77492588670468
H        14.80266351679181    4.10807348436770    7.51224093744906
H         9.62420110946042    2.79545659536369   11.50840566108816
H        12.24587901188231    2.58192283370304   11.72805771048675
H        12.30150582403889    4.42616781490173    1.96035238545447
H        11.77421441416288    3.44539025413537   -0.26297836269909
H        12.49421923722657    4.61202016073858   -2.31688871448631
H        13.75131123759891    6.72334441818825   -2.15951047755864
H        14.30019485811769    7.67985350413164    0.03453312295916
H        13.38636426149920    9.02172364698390    2.27157188244447
H        15.08544061721211    8.51071161390289    2.08202911138312
H        14.40413470244621    8.77896755926739    3.69820381608783
H        15.98741850028551    6.12819409260874    2.36042637893539
H        15.14610275420678    4.78703895862588    3.18521697889224
H        15.65887373176438    6.19636844790190    4.11791943186304
H         7.43613590667354    6.86738346042706    3.99416980376142
H         5.57346483420238    5.40333817355388    3.36164855672434
H         5.81552931052000    3.82269785278353    1.48523919252947
H         7.94322875284678    3.70793794966278    0.24031081317589
H         9.82039633305950    5.17396613896230    0.87434558373323
H         9.22795888489001    8.14848536394837    4.86434103269418
H         8.65343182251896    8.97826655074759    3.38593704440757
H        10.29734896437474    9.26915956365572    4.01317902107930
H         9.54092029614499    8.44494992825856    0.93719809234503
H        10.86820158721118    7.33244831567320    0.54144010161925
H        11.20422188465011    8.81878810431902    1.43803120413176

