20
CSD_code = GOYVIB | q = 0 | S = 0 | Stoichiometry = C5H5Cl2N3O3PdS | MND = 4
Pd        0.60608197628180    3.81865969200070    3.99424779129936
Cl        0.84768407012610    5.98182354011629    3.57312630899702
Cl       -0.04865487106372    4.22201726526999    6.09975386288825
S         1.95816029282487    2.54278541976302   -0.22601240817360
N         0.42204448130896    1.91522442174085    4.27327549779045
N         1.17277070228650    3.16062169424927    2.13007197643828
N         1.69012186695487    5.03340868641145    0.85285625737841
H         2.01859992049225    5.42229880398315   -0.01200368661602
H         1.44909664315920    5.62837228658340    1.66984848654165
O        -0.00648354452987    1.41063265129169    5.44059445271603
H        -0.14917523176011    2.21521818602934    6.03529271064259
O         0.44173202967115   -0.95769197685757    4.43995034501716
O         0.62273267505021   -0.99188177304393    2.21817966145251
H         0.52413547654813   -1.94769317684893    2.36070805707059
C         0.69500890448835    1.11319747422456    3.27885880727899
C         0.57253225635657   -0.36312814146025    3.40579648899624
C         1.13230725636500    1.77909467435764    2.06565516253961
C         1.57989954528783    3.72520461229871    1.02061687599127
C         1.52794542359462    1.27432842893038    0.86531657204939
H         1.58896012655728    0.25410723096024    0.55426677970180

