31
CSD_code = GOZCUV | q = 0 | S = 0 | Stoichiometry = C10H12MoN2O4S2 | MND = 6
Mo       -0.38125070415539   12.26809982807460   12.04400643932564
S        -0.28353883750689   14.50738668905588   13.03367896467580
O        -0.06508291558509   11.42249797736798   13.41351961975163
O         0.89195262289156   12.73489636916980   11.11512455162213
O        -1.43055449077283   13.87729786197021   10.21564740446017
H        -0.50687477071243   14.09539405447057   10.01198633243787
C        -2.03494263110668   13.38754731514047    9.02859013837599
H        -1.51300321366422   12.50332430697873    8.64971514833344
H        -2.04194990347173   14.16652918329621    8.26005999739832
H        -3.06317891995530   13.12227863451964    9.27666034391316
S        -2.27592280546217   15.87552999673806   14.72030145249942
C        -3.98979721396112   15.46644109171932   15.17546000669421
H        -4.59806223965474   15.43834430581500   14.27870664843328
H        -4.32604764961823   16.25065087154205   15.84478544887954
H        -4.00153714848116   14.50381795213145   15.67363628971328
C        -1.88085046889016   14.53463906342614   13.70269793401784
N        -2.78686163631010   13.64376010797831   13.48373848184136
N        -2.46069084590356   12.59450253994334   12.69583069443017
C        -3.38262629568352   11.68036849226597   12.64027103218872
H        -4.28148868837903   11.85176306414334   13.23450233964754
C        -3.31239714213674   10.47912796261967   11.87790556086257
C        -4.33626279999945    9.52140813768374   11.96472611800034
H        -5.16678910313102    9.70803321766075   12.62965751474095
C        -4.28220594597291    8.36167498980546   11.22849087811546
H        -5.07079311773879    7.63020836487650   11.31079765060857
C        -3.20545107429920    8.12866561716838   10.37439445798364
H        -3.16574863166729    7.21574968830557    9.79966113393699
C        -2.19120299930923    9.05367523080746   10.25566082328865
H        -1.34705522131406    8.88714736749662    9.60131441066456
C        -2.22012453820851   10.23739430642910   11.00541365410301
O        -1.26866066984097   11.13344541139903   10.88545852905290

