82
CSD_code = GOZDEE | q = 1 | S = 0 | Stoichiometry = C37H40CuNPS2(1+) | MND = 4
Cu        8.25328135556353    9.94960459495555   12.02328759279575
P         9.50876097935420   11.71501593771308   11.43717377703249
S         8.08958749562933    7.88451151771553   10.87905530893072
S         7.95296293145560    9.51292759427364   14.32618819854291
N         6.07914873976209   10.14531947967675   11.88602007428507
C         5.67792495395293    9.31458991388241   10.75076341263126
H         4.58471296043347    9.23193942251412   10.67723419478989
H         6.04603769727958    9.79880786250338    9.84356145794647
C         6.24922530076253    7.90082109239470   10.80390792147744
H         5.96468548921885    7.36726954689314    9.89727181149711
H         5.88419238366203    7.34277093662027   11.66323088124967
C         8.43357945427535    6.56039835984906   12.10801543586345
H         7.54483223150943    5.93314667451101   12.15721242934611
H         9.23719182610231    5.98177326542108   11.65262842702773
C         8.87484721906905    7.02263583667600   13.48996587347980
H         9.23836986805343    6.13547661164591   14.01417593788612
H         9.72102765270337    7.70809232799532   13.39336666527319
C         7.78825227105918    7.67937867874189   14.34223485535583
H         7.88522067233442    7.37874177022965   15.38445365848153
H         6.78948596270150    7.42277673107530   13.99654844032602
C         6.22202662831750   10.09468287941577   14.37469435076908
H         5.74875394026971    9.66829451056206   15.25837693592227
H         6.32205022883019   11.17059828645728   14.51612076137022
C         5.40298258690768    9.76993489518506   13.12764551376351
H         5.19932845434540    8.69777973097625   13.10652124128787
H         4.43477877337864   10.27715269695758   13.22418522607451
C         5.96871183483587   11.58093464070353   11.59349060884561
H         6.72151110484117   11.82464956084763   10.83694465626499
H         6.23847797991187   12.12692791054240   12.50042106608873
C         4.60616761672515   12.09013731000059   11.10275785575364
H         3.82253856911353   11.82842277251138   11.81598672503821
H         4.35023686491262   11.64208018671065   10.14201689601113
C         4.67333740153339   13.59022110156790   10.98019832028216
C         4.10712584395597   14.36939260732591   11.95619825424066
H         3.58806636284220   13.90128346325917   12.78110297335126
C         4.17019802206400   15.76821851468623   11.90856358682524
H         3.69942194258788   16.34592916073650   12.68917259584736
C         4.82209688287016   16.38579533676958   10.88113211430747
H         4.88000722480593   17.46329516722947   10.83231260647969
C         5.43402490801140   15.62703436706049    9.86148133943544
C         6.13186908397408   16.25701818125687    8.80932428927759
H         6.18227991556255   17.33611716576456    8.79881528574784
C         6.72849720262426   15.52484364027661    7.82294691731952
H         7.26298970353659   16.01264525640070    7.02217797638382
C         6.63186246832288   14.12660456611988    7.83890407354412
H         7.08749223686020   13.55408221607604    7.04494810744784
C         5.96331446759742   13.48696640894995    8.84527217267559
H         5.89258627786238   12.41027733059618    8.81566515072860
C         5.35616583845153   14.20750981001359    9.89781216161678
C         8.89426334480642   13.22827845834379   12.23210426025849
C         8.86154513473328   13.20419006972681   13.62684843680691
H         9.25136612516794   12.33775635139218   14.14837780775458
C         8.34417077570190   14.27539135293035   14.32807749806443
H         8.32658665784705   14.25685663727540   15.40757682646279
C         7.85013446947597   15.37471405307661   13.64122295486772
H         7.44864970139650   16.21464887585225   14.18671502476589
C         7.87009866955373   15.39537915196938   12.25727514621074
H         7.48422535882196   16.24985237709237   11.72426602284274
C         8.37813825707236   14.32098465350457   11.54690267982734
H         8.37201609961486   14.33754626858370   10.46654783533053
C        11.26831506463903   11.67630206586170   11.90241148872517
C        11.97092546769841   12.77892818796310   12.37304116411204
H        11.46840849953262   13.72565235731324   12.51439265734695
C        13.31614146645429   12.65252160764017   12.67198201878238
H        13.86466786287339   13.50712495487101   13.03834649659049
C        13.95986667759423   11.43747920567222   12.50253635316051
H        15.00938772545795   11.34760918091788   12.73702418013905
C        13.25902260262056   10.33571999549404   12.03684830935431
H        13.76153517247694    9.38887868175023   11.90843827755818
C        11.91465491620686   10.45327490043107   11.74130968857459
H        11.34747802758603    9.60314377415764   11.37891955115554
C         9.61482813664965   12.10137431380367    9.66364919462515
C         8.98160361280137   11.24717078170071    8.76765103266755
H         8.44209586270203   10.38758480532713    9.14893330086040
C         9.06550132129836   11.48170970254288    7.40721862325947
H         8.57850081764956   10.81433388478240    6.71187494696750
C         9.78138773179578   12.57170028459592    6.93968998695786
H         9.84892435368410   12.75651257979098    5.87828661417959
C        10.42115121561941   13.42055936923125    7.83017232282020
H        10.98585715238009   14.26306247330059    7.46084280199699
C        10.34754275631557   13.18585565711988    9.19012712228778
H        10.86108115045121   13.83377515621149    9.88640325652141

