131
CSD_code = GOZHIO | q = 0 | S = 0 | Stoichiometry = C63H63BrCuP3 | MND = 4
Cu        1.73939580653517    7.22770915227808    2.51197148253544
Br        1.32902260817833    6.76697910871678    0.26635076572702
P         2.73975042405693    5.42775078840119    3.62165397097098
P         2.88183021447351    9.23000004907948    2.78230322886603
P        -0.35572603944697    7.37810150265021    3.48897797487774
C        -1.67765420003366    8.17483644721264    2.51473128413371
C        -3.01949399035259    7.83203344951651    2.64288662576204
H        -3.31410728043431    7.04017404030613    3.32010645153827
C        -3.98942145295441    8.47809265036137    1.88999190697816
C        -3.59716253954181    9.46781585546360    0.99637913784937
H        -4.34574231333714    9.97608896609865    0.40509889568520
C        -2.26093399477152    9.79117722017537    0.83983032880239
H        -1.96440337838161   10.54311420050552    0.12398385849614
C        -1.30017230186228    9.14389740458798    1.59248897604986
H        -0.25414869384865    9.37448641890175    1.45320536898684
C         1.75245107314059   10.64359773142738    2.57237039515275
C        -0.56803150988269    8.11467186485491    5.15052380900531
C        -1.77688274073552    8.56636020247933    5.66608181092037
H        -2.67911260342456    8.49622224530390    5.07711721641848
C        -1.81414695315404    9.11070121056651    6.93686680064598
H        -2.75265002118020    9.46029163449826    7.34319707574534
C        -0.65815182291569    9.21196147112451    7.69356677519962
H        -0.70277285292221    9.63726379858475    8.68646284155904
C         0.56263226348524    8.77944986656231    7.18830777960038
C         0.59063514920097    8.23873303830504    5.91066629869396
H         1.53685914037825    7.91038533905399    5.49218080129093
C        -1.09424028872610    5.72763087678958    3.70265924375848
C        -1.44146053408408    5.18105167039477    4.93211080184888
H        -1.33749362005660    5.77048628084812    5.83478097568036
C        -1.94214301645915    3.88975036422978    5.01364652521058
C        -2.10565407229416    3.15738492942769    3.84416047502626
H        -2.50319977382537    2.15396757912707    3.89920303047653
C        -1.76571679785862    3.69739905533987    2.61577594943739
H        -1.89873278100882    3.11817759038750    1.71460435173946
C        -1.24707432412367    4.97424449100446    2.54048093120643
H        -0.96710145952416    5.39653068018145    1.58478944232379
C        -2.28181371191387    3.28557911518570    6.34347486169858
H        -3.19226633783613    2.69316404793234    6.27833218915549
H        -2.41529537556273    4.05532959531281    7.10076949052141
H        -1.47620198594044    2.62374510174742    6.66491579377364
C        -5.43020782127711    8.08716502478096    2.03054421402965
H        -5.59956195915454    7.11972746931717    1.55756937597391
H        -6.08044804825192    8.81834289022487    1.55668059444218
H        -5.70707137067097    7.99673344214448    3.07977665860612
C         1.82421853267043    8.91891303447549    7.98265113246054
H         1.61226810076414    8.94626233238029    9.04916285861021
H         2.33199534993689    9.84485957339672    7.71098853052815
H         2.50571677554583    8.09676438347494    7.77389625616839
C         3.69521013259339    9.60047450946565    4.37145902285990
C         4.36814540428778    8.54399469475509    4.97547612476823
H         4.36211778701552    7.57005429597400    4.49941724280452
C         5.04104945417781    8.74028317436603    6.16591904627491
H         5.56163627367347    7.91770027746851    6.63389458610797
C         5.04341813629089    9.99129456044768    6.75775249775925
H         5.57008882032588   10.14453288039035    7.68904817212530
C         4.37488502103108   11.05954414576708    6.16758603580443
C         3.70138472428855   10.85356417231356    4.97221585686066
H         3.18491542596884   11.67848552682862    4.50039243327816
C         0.81040890495948   10.85784994643273    3.57763562236914
H         0.86324523399199   10.27106713312488    4.48553915764611
C        -0.19021574475935   11.80357093709609    3.43365989736620
C        -0.23798890304569   12.54875746694499    2.25978253694243
H        -1.01616564512459   13.28736335185584    2.13085788984344
C         0.69396774740577   12.34566717308364    1.25818486808657
H         0.64528723632173   12.93028504996717    0.35086846294049
C         1.68453162475916   11.38974255807896    1.40115381948273
H         2.39668579076847   11.22392981040586    0.60605756118640
C         4.21011537584274    9.64505734235896    1.60070209874162
C         5.39709917773041   10.27333918821343    1.95964092057442
H         5.58901759917882   10.53899403737395    2.98932200722245
C         6.33511915418994   10.55652516712612    0.98273245935935
H         7.25785261022938   11.04850347856293    1.25681611195259
C         6.10313885877216   10.21463679563979   -0.33870683571663
H         6.84685577231576   10.44108616794135   -1.08958896310654
C         4.92783006766008    9.57033175949720   -0.70918162328730
C         3.98971916264966    9.28905408183237    0.27263585129469
H         3.07963404027061    8.77245232999593   -0.00183793418346
C         4.36840015364801   12.40868046638921    6.82143808608463
H         3.58116304088896   12.45626857946611    7.57533806922169
H         4.18220845513925   13.19282770675959    6.09140365758475
H         5.31712597638432   12.60311252651196    7.31704717233282
C        -1.22546967240644   11.98783162173233    4.50021858854072
H        -1.50326005719804   13.03538803505302    4.59702074626613
H        -0.86745017543081   11.62167335680233    5.46003249460855
H        -2.12147225884083   11.42366851494637    4.23755912850186
C         4.66427655172190    9.19106598503679   -2.13293073201170
H         4.29093033092295   10.05410036722298   -2.68505354852435
H         3.91416718696619    8.40578841103539   -2.18502502044848
H         5.57663569477616    8.85286124221910   -2.62015348934549
C         3.04577489717605    5.28218153042496    5.41377503436308
C         1.92201322488911    5.32598391536798    6.23331349149178
H         0.94280801319423    5.37808779985409    5.77394892955851
C         2.03283477137342    5.29764045205091    7.61543377518750
C         3.30342580282019    5.24330268468995    8.17552810886332
H         3.41366297064637    5.22491843302566    9.25063804715650
C         4.42899953873646    5.21749121555539    7.36870116122060
H         5.41027800633439    5.17643716718495    7.82047666231224
C         4.31016399903202    5.24166294087007    5.99118381533951
H         5.19436243310938    5.22303087942378    5.36932278673887
C         4.37074749087004    5.04988337866096    2.89651927287566
C         4.96662178806042    5.98902051066434    2.06892470459645
H         4.46586769294609    6.93348657884771    1.88327651899975
C         6.18817127681671    5.73332739530240    1.45729562775822
C         6.80522445504219    4.51456491256304    1.69970950443791
H         7.75530881252632    4.29602468665604    1.23299215428183
C         6.21461272832499    3.56819608174962    2.52409040813170
H         6.70801817247352    2.62201882159588    2.69490252852941
C         4.99677976443054    3.82490029660589    3.11964523716318
H         4.52404699441875    3.08599103989537    3.75236330163905
C         1.92056073700695    3.83920378874800    3.24236832746680
C         1.76476018634000    3.57738398223691    1.88517524870687
H         2.12197824257771    4.29291997749812    1.15693218767091
C         1.14841635676431    2.41769789273010    1.44270941917419
C         0.69930394138045    1.50436534626530    2.38843390769376
H         0.21984810028197    0.59082955956665    2.06545762407982
C         0.85642609775078    1.75543482243803    3.74021963599831
H         0.50532462269502    1.03426076138481    4.46522246042513
C         1.45832079693174    2.92120829404984    4.17707368918264
H         1.57421165805878    3.10196637740650    5.23597998592302
C         6.79655949028445    6.75411809321769    0.54818102394090
H         6.14868197896300    6.91359665780575   -0.31257287738814
H         7.77416241817854    6.43362799110542    0.19695487555241
H         6.89955751362679    7.70972927539886    1.06057635651698
C         0.98861444971316    2.17486941605401   -0.02525927592115
H         1.91663694939696    1.78133620790046   -0.44067392403443
H         0.76614145381696    3.10823606067748   -0.53769746606660
H         0.19598210215039    1.45621143809507   -0.22045722988308
C         0.80008980883071    5.32893499990050    8.46696576794592
H         1.05540704554599    5.35356200203457    9.52351617757879
H         0.18886649906372    4.44692604457521    8.27744800737197
H         0.19980477641351    6.20751627839712    8.23139938312918

