54
CSD_code = GOZJIO | q = 1 | S = 0 | Stoichiometry = C15H31O7Pt(1+) | MND = 6
C         7.60530334760884    4.61778489208415    2.79908406656792
H         8.06784269799865    3.75848922672054    3.29592369271503
H         7.04680465437863    4.27024028310584    1.92613419445052
C         6.60561930131222    5.27252260309484    3.76869067285078
C         5.51943188186096    4.28957363626042    4.25172871797927
H         5.93331046781644    3.26998384685364    4.24807133462042
C         4.25121966824362    4.26747479159856    3.40129641168603
H         3.46569959860262    3.77592106313075    3.98931651073559
C         3.80746821225382    5.67177258103122    2.91741142903012
H         2.77802975521508    5.89604898661709    3.22466007593460
C         4.74050240396389    6.75757843539135    3.44193081715012
H         4.54695221399169    7.69523959599703    2.91958974984513
H         4.58916272069931    6.88284593528800    4.51939724891619
C         6.48788735586227    5.17156038472086    6.10473263752715
C         6.22041721728938    6.31359208522741    7.07825165964639
H         7.14735585622771    6.62437115970551    7.55038899106850
H         5.52830893518438    5.96520654320526    7.83780779409230
H         5.77330704417058    7.16040550416671    6.56271900687850
C         7.26302078796123    4.03828280523043    6.77473187075807
H         8.22565621924246    4.40571577699566    7.11752888766960
H         7.42501751458785    3.21708983066722    6.08135683159531
H         6.69243761694024    3.67356210481435    7.62285708051265
C         3.86944137510238    4.22990292271418    1.14764249620082
C         4.65540200676935    4.01641697707659   -0.13848374067559
H         4.19630202374018    4.58837699666149   -0.93794297340637
H         4.64559058517272    2.96147667458188   -0.39112449170505
H         5.68334176459874    4.34244524779237   -0.01066285494185
C         2.42601133014233    3.74440150119541    1.00263391141255
H         1.87277156555594    3.89427227735468    1.92602038901381
H         2.42485061481686    2.68604601987676    0.76161761619660
H         1.93888906426397    4.29893296204622    0.20644299988203
C         9.37828668831893    8.39137915615881    0.92974107956089
H        10.00248330632056    7.51196992439271    0.75837120214839
H         9.87544694942599    9.07168707234016    1.62200090325415
H         9.19631722848631    8.89827118565377   -0.01370873331562
C         6.86735332239876    7.20594393364629    0.07191635897299
H         5.87267849309736    6.82849727689560    0.31841201986080
H         7.47772404588369    6.41358392370947   -0.36370872081415
H         6.78563699564087    8.03104892226928   -0.63057986934659
C         6.84374945302078    9.51092773742807    1.79029221433997
H         5.80716033427013    9.40890841122289    1.46695602051521
H         7.34408614079173   10.22589400143080    1.14126601606223
H         6.86794939383885    9.88449405182299    2.81743766492692
O         8.59360245353154    5.50741710478703    2.33808736916208
H         9.20084507196969    5.71065640805423    3.06500599144495
O         7.24894926653363    5.65428277734141    4.97222972082578
O         5.26264288738755    4.73034629352633    5.55993752119551
O         4.53091684431885    3.56046808320747    2.21951332014888
O         3.91632644495383    5.60129131054705    1.51473710916435
O         6.09048855112732    6.42881315098205    3.14521864574533
O         8.69323567333490    7.87558548188068    4.06933686160029
H         8.20152431374085    7.27927948765455    4.65649309965856
H         8.81236918762794    8.71354205576226    4.52329497734409
Pt        7.71897115245197    7.67667859811886    1.85179619329186

