44
CSD_code = GOZJEK | q = 1 | S = 0 | Stoichiometry = C12H25O6Pt(1+) | MND = 6
C        -5.20449801216230    1.23628577792419    8.87928822186005
H        -5.56722072132925    2.26854896740553    8.90060429273327
H        -6.05010298733556    0.54947236878691    8.99544720386837
C        -4.55288887966650    1.00861823213711    7.51296329291566
C        -3.96755569016591   -0.40636014624625    7.26984491325780
H        -3.99557871355678   -1.03561552433708    8.16863744062310
C        -2.50654017957594   -0.14143362564817    6.83305283328157
H        -2.26273443824040   -0.72550456930756    5.93937756754810
C        -2.50827137625600    1.37385345095595    6.53588275321794
H        -2.83339342636034    1.52629045291425    5.49917075502303
C        -1.18872132485457    2.12558073881371    6.80318928328682
H        -0.34446869690026    1.43423804535075    6.76902621259624
H        -1.04777020996925    2.90135823388191    6.04413071565652
C        -5.67725131146645   -0.01644028989658    5.74987158937308
C        -7.09999070583862   -0.52079671363782    5.98255332847412
H        -7.24428966613836   -1.44841836814425    5.43860736237312
H        -7.80794180826103    0.22351161293344    5.63330177833482
H        -7.26653118005911   -0.70287221340429    7.04103566783018
C        -5.41340742664294    0.22400918056481    4.26596579591031
H        -6.10125301235757    0.97856276266433    3.89872519320240
H        -5.56235503205770   -0.70325485715594    3.72251131677974
H        -4.39370756472024    0.56580926591380    4.10747285971894
C        -1.88994777544451   -0.47857001684845   11.09097769509709
H        -1.25876966251094   -1.29897085231097   10.74457873716782
H        -2.93401222919343   -0.79268955227503   11.08085577104025
H        -1.60223830040473   -0.22512292742797   12.10849495327805
C        -1.83673553498911    2.45477739372289   11.25068718048085
H        -2.44804357145155    2.10556430112320   12.08174443579713
H        -2.31651766279949    3.31544466060994   10.77707826327256
H        -0.86259815895487    2.75371529921463   11.63210921110728
C         0.31721164961024    0.96582890781982    9.96568897631614
H         0.71818778829838    1.93774156821535    9.68447572407877
H         0.65039758992219    0.20811477125289    9.25636596073491
H         0.64193384688320    0.70477629761073   10.96911788376442
O        -4.22676074449443    1.00313644825047    9.87371064258741
H        -4.56602048421765    1.31305848678961   10.72218696459164
O        -5.46537466907484    1.19173612730812    6.48152186382734
O        -4.74951723361478   -0.97073490573130    6.27109972900492
O        -1.58890255725705   -0.42601445781853    7.86867774140069
H        -1.58888584239278   -1.37710262109497    8.03858319350683
O        -3.47886399728130    1.90663390392397    7.42645108950344
O        -1.18854048291923    2.71156875970252    8.08580769427954
H        -1.88179329962119    3.38593119048291    8.09918334178577
Pt       -1.70383630417652    1.06363443501057    9.77684256951227

