33
CSD_code = GOZQAP | q = 0 | S = 0 | Stoichiometry = C10H13MoN3O5S | MND = 6
Mo        3.14360637757138    9.35092389016847   11.74758230948516
S         1.68140334341283    8.04679662466222   13.18758740755122
O         6.17651793972315    8.41539294579987    5.57227749522663
O         3.39866413140714    9.97318332755550   10.03282325525639
O         4.56837718106820    8.82180187551358   12.36911983135930
O         0.66903165803999    9.67217572636560   10.60140836037770
H         0.82171951614316   10.32115899281265    9.90537121936100
H         0.48858199864454   10.18325036022036   11.40397244425608
O         2.46082722360078   10.67770858169198   12.43950712112663
N         2.90187645422009    7.47489505520538   10.61365032720736
N         2.38623534112199    6.37647156795276   11.20014133421408
N         1.30786474039180    5.41665989310574   12.93903204484774
C         4.07401348231010    9.57562304438417    8.97184177686096
C         4.68995511275222   10.50176268237322    8.11917251347980
H         4.62079447160122   11.55128304294225    8.36706736378287
C         5.37862033219304   10.07756347116393    7.00908304823123
H         5.86427101635912   10.78192944727918    6.35284670962308
C         5.47109416106989    8.71146542692260    6.69643083995448
C         4.85741924728135    7.78668496080945    7.51889130612913
H         4.90482857460766    6.72977391124082    7.30896429597885
C         4.15723505169973    8.19912735523838    8.66639739904113
C         3.51925874427460    7.23048329473402    9.49590751935696
H         3.55285410561150    6.18831848952675    9.17718277083061
C         1.82977499972223    6.51060140139220   12.36640250721980
C         0.77526407005878    5.37344790873872   14.27435492759590
H         0.08442825697230    4.53682032472136   14.35405760045938
H         0.24948683150847    6.30542000240589   14.47307596171218
H         1.56766579779357    5.25977726837435   15.01917560407323
C         6.33254571805456    7.06334823032352    5.21255868676965
H         6.93811502328483    7.06865980123681    4.30785143232874
H         5.36856105241103    6.59040914287609    4.99949376649325
H         6.85217817314500    6.49813972259974    5.99247038086920
H         1.50332987194698    4.54294222966301   12.47280043894038

