55
CSD_code = GOZTEU | q = 0 | S = 0 | Stoichiometry = C26H25AuNPS | MND = 2
Au        3.12306493644910    0.38186417696620    2.50931625430580
S         2.85430074866735    2.46935228394502    3.47677125593197
P         3.25044271666417   -1.71542022493272    1.65228834345468
N        -1.93059712413438    2.00075202572485    7.02428773411658
C        -1.93014022881582    0.99456800979628    8.06274232335934
C        -2.58658186398506    3.21466191046288    7.44458489564667
C         1.45586348123226    2.28157314102268    4.51745494529153
C         0.81072885805832    1.06963329475494    4.73890418045904
C        -0.28426720946787    0.98966568662389    5.57230551622241
C        -0.77803145575721    2.11633921290908    6.23312426495289
C        -0.12904779527742    3.33125234642761    6.00511724263531
C         0.96188599088356    3.41020471340927    5.16504448715325
C         4.89571699744180   -2.46503993901250    1.51930318195172
C         5.95781823725756   -1.61198862081264    1.23221415718723
C         7.23611280486330   -2.12169930792019    1.10148809498938
C         7.45789737526213   -3.47984387828172    1.26729302873416
C         6.40293999073838   -4.32841331662503    1.56444931795044
C         5.12028353085298   -3.82719660106110    1.69207976953543
C         2.31660134884788   -2.89843796921976    2.66028864564653
C         1.47250916174648   -3.86819655806334    2.13047125808516
C         0.78424701438378   -4.71400569000118    2.98240496474012
C         0.93268664870727   -4.59637689957469    4.35483832181059
C         1.77269371327310   -3.62910770817249    4.88488271369483
C         2.46077864050400   -2.77910822710064    4.04084268421155
C         2.54031096731431   -1.89912785837311   -0.00369047977367
C         3.20933376746340   -2.48068048279672   -1.07414239056091
C         2.59597759361555   -2.53405484380476   -2.31388615158603
C         1.32664222801448   -2.00842939160553   -2.48955492452360
C         0.66244099496911   -1.41772486953611   -1.42470436480134
C         1.26947386601496   -1.35503519909667   -0.18619587685003
H        -1.37867276340972    0.11620731850367    7.74146168250055
H        -1.47355712601882    1.36669433772232    8.99258054325500
H        -2.95955194586701    0.70115657469750    8.28004884244778
H        -2.70988075640385    3.87652769919266    6.58945341273694
H        -3.57633790756326    2.95359558328879    7.82345618112353
H        -2.04690896111794    3.74960253419029    8.24040691159658
H         1.16579798922278    0.17273329795118    4.24073737375948
H        -0.77385018750017    0.03392474835092    5.69587716519581
H        -0.46594510250729    4.23303990134139    6.49252908186176
H         1.45358944875405    4.35746057382995    5.00315694831323
H         5.76770599572074   -0.55184247721033    1.11857771309140
H         8.05984675870959   -1.46097240695928    0.87651717455800
H         8.45674321296190   -3.87810621401498    1.16961970060864
H         6.58058035651813   -5.38548744992670    1.69736079507361
H         4.29450466617021   -4.48561752061208    1.92474055455892
H         1.35394948217620   -3.95645824607327    1.05912755623358
H         0.12731075536997   -5.46692217179317    2.57222481282175
H         0.38881977805421   -5.25693203557349    5.01342075032461
H         1.88394827735330   -3.53312754321432    5.95456122230022
H         3.11093189619218   -2.01011710661738    4.44023493379458
H         4.20124241526429   -2.88845395159122   -0.93696566284670
H         3.11338719509451   -2.98706717079093   -3.14672631353502
H         0.85514064279808   -2.05272960602946   -3.45984168321397
H        -0.32357504603627   -1.00048443750125   -1.56428570512119
H         0.77069499025621   -0.88460344718507    0.65260261457857

