37
CSD_code = GOZVIA | q = 0 | S = 0 | Stoichiometry = C15H14N2O4PdS | MND = 4
Pd        2.37113696482929   13.46848548991898    8.10701142205945
S         0.15533830441411   15.31491259700856    9.70612034269008
O         5.21563437041233   11.79373741226238    5.67666889459039
O         1.59189227783666   14.88320928351360    9.68689289839351
O        -0.14226001096238   13.63534245132857    7.77777259877536
O         0.43972958181399   11.75459350005265    8.67635779165633
N         4.31414552809519   14.29109620778166    8.15264945587259
N         0.71372802483286   12.79660256699041    8.10141638452395
C         4.76011739387809   15.29877257580710    8.88870184285333
C         6.07183185250005   15.74313547495903    8.83333508598035
C         6.95619392402944   15.10658246206913    7.96985959731896
C         6.50427004479569   14.05420041736476    7.20032907483430
C         5.16807673618419   13.66089451764422    7.31196867906730
C         4.55680682624275   12.58173233887922    6.58941828426575
C         3.23395757388178   12.23119458107648    6.76654735282410
C         3.04393835995575   11.11954498904225    5.88744821682440
C         1.96002555953081   10.29392643755360    5.58356446478478
C         2.14323096466433    9.29064979337854    4.65922057793590
C         3.37795119665614    9.09376896211019    4.03526781798490
C         4.46892690999492    9.89167536991319    4.31858645463161
C         4.29065163107177   10.90263906761118    5.24904411687572
C        -0.67029615837148   14.09894068179591   10.79812795376194
C         0.20878059341184   16.65671838348567   10.97192840554081
H         4.03572299985952   15.76508907093282    9.54765302766816
H         6.39329890277607   16.56702685161666    9.44994370842658
H         7.98399026051879   15.43141957879952    7.90368912079251
H         7.15138633047289   13.52696823399001    6.51797695333302
H         1.01152672518166   10.44736657859140    6.07552445522292
H         1.32106037640874    8.63771016630174    4.40656961740312
H         3.48172148789604    8.29609473827301    3.31475796298505
H         5.42398651108388    9.74017725527169    3.84064347817497
H        -1.64975371347055   14.47846501413521   11.06430696143714
H        -0.05771331606521   13.93930901745178   11.67936427668345
H        -0.77994662043199   13.16475644485329   10.25460371913547
H         0.74326877038080   17.49576485465500   10.53917396187268
H         0.73158540834350   16.30583572937634   11.85414639002791
H        -0.80374257264386   16.95566090420603   11.21540865279379

