68
CSD_code = GOZXUQ | q = 0 | S = 0 | Stoichiometry = C31H33FeO2P | MND = 8
Fe        8.53747651199926    5.71466815711715   10.49813051024459
P         6.46714951677020    5.91883825540664   11.09885418074830
O         8.91703940666514    8.55860988956363   10.22325327772161
O         9.08349542698319    4.50537999531666   12.62991824726097
C         8.14637390212346    4.44453002852072    8.64436593147080
H         7.20037963198716    4.33408752005769    8.13589142593307
C         9.13656168068675    5.39460462302144    8.36044346170891
H         9.08493746350835    6.18056384983120    7.62449114717914
C        10.26887903022461    5.08772944480398    9.16576153126105
H        11.23140983195664    5.56943885797646    9.09302321299083
C        10.01790420898443    3.85246846951237    9.81729300482454
H        10.71391103020158    3.31995300705960   10.44189691811255
C         8.70733063766535    3.47965129485785    9.54509483517774
H         8.21794715357881    2.57608683774229    9.86642034799611
C         6.12340699219950    6.61339183275770   12.75411935701171
C         5.71783592953014    5.86095883014759   13.84945889389415
H         5.50581391976826    4.80768899724887   13.73545814211262
C         5.58198074208558    6.46109462572886   15.09044838941276
H         5.26676256653038    5.86960567234717   15.93793994620949
C         5.85300874032294    7.80916343140150   15.24970159407507
H         5.75283351012439    8.27039986033537   16.22103952611372
C         6.25477114147387    8.56610381924709   14.15966038323298
H         6.46400252414671    9.61914550829819   14.27964435914927
C         6.39331895460502    7.97168472079198   12.92084302170994
H         6.70755418127232    8.55352012536495   12.06371123355099
C         5.53481825293943    4.34612767867615   11.12643979161063
C         4.34114099119796    4.13725741796046   10.44607234077129
H         3.88741928505622    4.94048064929532    9.88306410571980
C         3.73275836906173    2.89385946783094   10.48465167465405
H         2.80466620247678    2.73666348685800    9.95415818033037
C         4.30979361641759    1.85417302824419   11.19367084956692
H         3.83056930914192    0.88647518550807   11.21935003199968
C         5.50956456959593    2.05310911923495   11.85940949391816
H         5.96875462772083    1.23981588137297   12.40248755621544
C         6.12582133957661    3.28946281439860   11.81946432047268
H         7.07674488556250    3.44424009417414   12.31153354502563
C         5.40003156586292    6.99959068640918   10.08457592138752
C         5.84259285161269    7.37946930000864    8.82381252859609
H         6.81345495507069    7.03997309174958    8.48957796212483
C         5.05572877422370    8.18821782800436    8.02304880726755
H         5.40479798141155    8.48355319004109    7.04450704485471
C         3.82229361805187    8.62236932375264    8.47957223455194
H         3.20779348221606    9.25581335423545    7.85697458958832
C         3.37637722266450    8.24822694991560    9.73789948544847
H         2.41494557404727    8.58917843357038   10.09373835733591
C         4.15986464384856    7.43992497176638   10.54042024731239
H         3.81643248601440    7.14781421711390   11.52396760160277
C         8.76744946406837    7.42515664579465   10.37789561872355
C         9.09436704565836    5.66825010255022   12.29372162060715
C         9.57777877196035    6.78578744088229   13.17942092935981
H         9.01497762198544    7.69257698513186   12.95801524569985
H        10.62042606441502    6.97115914317547   12.90901563012913
C         9.46004472697234    6.43515986762123   14.66330068142917
H         8.42767414535732    6.14404128511234   14.86959997686032
H        10.09522812490686    5.57473402763074   14.87980502522284
C         9.84332145328620    7.60951882480792   15.55683447226622
H         9.22530396714317    8.47216571857763   15.29522619355072
H        10.88546268648524    7.87489209607283   15.37313988936257
C         9.64119883602610    7.27824781954371   17.03361913664634
H        10.28716057333123    6.44141200460862   17.30856241781480
H         8.60629802455871    6.95639641749497   17.17614954723847
C         9.92216071324009    8.45844077940718   17.96426382486047
H         9.32572610422699    9.31670943229282   17.64609701679891
H         9.60196599939329    8.18980674990283   18.97399096902033
C        11.39412548597426    8.85223153881123   18.00584843717088
H        11.55396794740715    9.64091772311839   18.73776137242491
H        12.00771861511875    7.99789718084406   18.28357236587033
H        11.72839438938137    9.21653439179603   17.03820007949965

