55
CSD_code = GOZXEY | q = 0 | S = 0 | Stoichiometry = C26H24PReS3 | MND = 5
Re        3.68117688368699   13.52663608323349    9.50047019685287
S         5.22715628122872   13.93696209434825    8.06344465939526
S         1.50546014855713   14.31955488461546    9.31871423584511
S         2.97622739130020   11.43709937601325    8.70463283236598
P         3.90550419712375   15.39486479671168   11.01359754799295
C         4.36479696404331   12.35555209432167   11.19821199638614
H         4.85400826504141   11.43765012527869   10.86521067542499
H         3.47231001497687   12.07344092469203   11.76997273103224
H         5.04341728158517   12.88251590725168   11.87553516216490
C         0.41367267276270   13.03833478880883    8.57841785914977
H         0.37696030661476   12.20836984376463    9.28801002617480
H        -0.56528169025736   13.50949974877544    8.49406332733619
C         0.94670847841158   12.60932202434319    7.26070142408938
C         0.33704670034158   12.96765761988967    6.06582529028772
H        -0.56754888769188   13.55887605121882    6.09267897830830
C         0.86976363392884   12.56442971055220    4.85571274880475
H         0.37893833707934   12.84044020640328    3.93429159777188
C         2.03294307771929   11.80972280526291    4.82518842871701
H         2.45035363131880   11.49439257879726    3.88058264311361
C         2.66813320117213   11.46814898566900    6.00234701850226
H         3.58475326414411   10.89783434041988    5.99565989704610
C         2.13285260203050   11.87238488433844    7.21896107935584
C         5.60518320353545   15.96183419530630   11.33874267450566
C         6.70381456529617   15.20218926095760   10.95773743538773
H         6.55085128328726   14.26317836669150   10.44135363330905
C         7.98337125711338   15.65587291896025   11.22853344004413
H         8.83532049911663   15.06422723348341   10.92909760451659
C         8.16953248957995   16.86488865525362   11.87705971631488
H         9.16824157221414   17.21895783166442   12.08521740513910
C         7.07397521197324   17.62566342587628   12.25633343674099
H         7.21890116501280   18.57059641186579   12.75915005747290
C         5.79390553491793   17.17904191146243   11.98954108576385
H         4.93742956883960   17.77123761472937   12.28152706773268
C         3.12588136940155   16.92748113119283   10.42320825183474
C         3.32568118400491   17.23047425036894    9.07857242886080
H         3.88773057006267   16.53738000628924    8.46197066842060
C         2.79451407042207   18.38748361959718    8.54333100262542
H         2.94563321679039   18.61792773167418    7.49935726386751
C         2.06047508167265   19.24592285194503    9.34718841796495
H         1.63800766236549   20.14770726757883    8.92921172193917
C         1.86164969114436   18.94683946949156   10.68468263255199
H         1.28719532928865   19.61595499165775   11.30882145352043
C         2.39277144810689   17.79023911694904   11.22876951423712
H         2.23094706774230   17.55750936933951   12.27246368910253
C         3.21993125792699   15.12109438517156   12.67212688238391
C         4.03382405950598   14.97914258554811   13.79097237106506
H         5.10607126324320   15.07730751737987   13.69663300097469
C         3.46644980654458   14.71325866422521   15.02492789495138
H         4.10061569186751   14.60502602365099   15.89251611699684
C         2.09347727170182   14.58063773352231   15.14855366893699
H         1.65618005480832   14.37089451977039   16.11339958690757
C         1.28068924247533   14.70902413002699   14.03269097342510
H         0.21041836711958   14.59803465200903   14.12675103510713
C         1.83990486762717   14.97165270516203   12.79677896090306
H         1.21647232016972   15.06002957649105   11.91654855037247

