106
CSD_code = GOZZEC | q = 0 | S = 0 | Stoichiometry = C45H48CoN3O9 | MND = 6
Co        2.67682184432330    0.54841794934424    6.26934425855772
N         2.59590311047499    2.29872463946220    5.46706216075095
N         2.68216494293615   -1.16452714046280    7.17304239617673
N         3.19296793623617   -0.20316220474233    4.56962633319742
O         0.86807072474646    0.17778581151866    5.87883018115566
O         2.09780982476683    1.38826755605866    7.84099999573312
O         4.44675204572643    0.79820652242047    6.79331889483062
O         5.59320811580958   -1.92125026259954    3.90024782419356
O         4.56576256166173   -3.78797916536775    1.72102219005259
O         4.52262832333973   -2.63625989807390    9.15257338820462
O         2.25514403665731   -4.74090663749188    8.53895614273826
H         2.61662805210599   -5.46304825213096    8.01250847295905
O         0.56908058028498    4.39769557892803    6.28183894591953
O         2.03499838461973    6.71409871367367    6.74571002847834
H         2.17095175697346    5.86713072156564    7.19189859009747
C         0.69370550336359    6.75450047336717    6.34226973368077
H         0.56447188513927    7.67281339986563    5.76527398155634
H         0.02677835518452    6.77940959196448    7.21458022728032
C         0.33916958914482    5.53856846901119    5.48411754965802
H        -0.71413787863449    5.58578686888761    5.16979792221903
H         0.96945825152782    5.53047685210879    4.58265599678514
C         0.29559215043628    3.16698345265371    5.66109815000392
H        -0.64608019280090    3.22603014133310    5.09693217490981
H         0.19057396839698    2.44184680981090    6.46860266131627
C         1.41678206608936    2.68387356460357    4.72122032635100
H         1.04234961778638    1.82016230079162    4.17139456112809
H         1.66386222850051    3.47831310790362    4.00388008242153
C         3.44843837129987    3.24414496667276    5.70933352014535
H         3.21879922479955    4.22241003941507    5.29037026745813
C         4.68488994926351    3.14675438196603    6.39190776630792
C         5.52856988923001    4.30378010932480    6.55294753937292
C         5.15388429383118    5.60786828740888    6.17696351591472
H         4.17511231599077    5.80987872512940    5.77453362310539
C         6.00048062054019    6.67657480236466    6.33621695569539
H         5.67043271798257    7.66184498460016    6.04185002225477
C         7.27368593428887    6.50782913367682    6.88185588424778
H         7.93126157540966    7.35639170447714    6.99855028595229
C         7.66718298907362    5.25633789242200    7.27631986248959
H         8.64269003571455    5.10061867238689    7.71583795028592
C         6.81625641175330    4.14937505726097    7.12836619680359
C         7.23455807265917    2.86524202428956    7.56467925055446
H         8.21896156547094    2.76888721184922    8.00201590406770
C         6.42721408116773    1.78697396544913    7.45259740890328
H         6.73774093296209    0.81212866119722    7.79916417581093
C         5.11891590349434    1.88329456635281    6.87412524255969
C         5.86958896639481   -3.58056380261095    2.19559722646575
H         6.60956458830366   -3.87634782309978    1.43911722622043
H         5.97204015869593   -4.22482123490954    3.07019104712545
C         6.13807675403279   -2.13387558777424    2.61844859201594
H         7.22427358051883   -1.95239280194251    2.64170772745532
H         5.69571520240685   -1.44667977862079    1.87972757000701
C         5.63029150095906   -0.57989479448424    4.33558459653535
H         6.54028747082060   -0.08444861411249    3.97126047737003
H         5.65197412327419   -0.60796924538533    5.42574360849313
C         4.39781003764164    0.22860821996154    3.88912012819010
H         4.27322529144480    0.12569370959771    2.80229809501974
H         4.58453343901252    1.27817708513002    4.11902177793585
C         2.51367243619282   -1.14861337739002    3.99832267272745
H         2.91204477155325   -1.56371203285281    3.07260057724322
C         1.25875877335331   -1.66066368285629    4.41272079210573
C         0.46440224528907   -0.89108739204363    5.30437371138590
C        -0.89335829611251   -1.29061137010636    5.52145091121317
H        -1.48070671634469   -0.67092486320566    6.18248795087080
C        -1.40387801245915   -2.40298476655115    4.94437232448986
H        -2.42939142125791   -2.69197865501103    5.12932305375495
C        -0.61143062251336   -3.23463863842215    4.10970875532424
C        -1.14041471724388   -4.41272741842062    3.55839518008407
H        -2.17215295540588   -4.66138273557313    3.76435543081583
C        -0.36706701991318   -5.23787067582134    2.78392742735032
H        -0.77980656666318   -6.14226638555923    2.36156553452518
C         0.97143676987573   -4.90878996657234    2.55951588015306
H         1.59500759594252   -5.56800082742491    1.97333950034484
C         1.51174045398422   -3.76136589403969    3.08485400026079
H         2.55861096006457   -3.56799465346475    2.91548166897623
C         0.73512913666896   -2.87361894008026    3.85218215966185
C         3.05823540595627   -4.54867734836641    9.68131558507021
H         3.14228692664069   -5.48565028888225   10.24749985943666
H         2.53855365909529   -3.81108052750304   10.29636498633780
C         4.47311485468711   -4.02812853649571    9.37532525072261
H         5.09489419591361   -4.22498536600762   10.25807727202622
H         4.89718510160472   -4.57645739575607    8.52295697838848
C         4.80299320125546   -2.20248397844641    7.84312572195300
H         5.62784244360638   -2.79112997187831    7.41456020828620
H         5.11515307281119   -1.16165678825906    7.95222436667513
C         3.60401393260530   -2.24232355054024    6.87572575108950
H         3.98393128607326   -2.14988976850904    5.86055503934400
H         3.08783548443484   -3.20450367647147    6.97229961840353
C         1.82718839743957   -1.41783467999267    8.11036285326185
H         1.79140512240515   -2.44041125127230    8.47379278104513
C         0.97019026104371   -0.50006567324928    8.76402263033126
C         1.23785698038220    0.88743202212899    8.64244823770811
C         0.53180042852873    1.78841296880397    9.50522498271733
H         0.78245883044259    2.83553629262231    9.42329855712745
C        -0.41668936348430    1.34698575939721   10.36404720417064
H        -0.94521898283658    2.04524349597360   10.99905560457979
C        -0.76710507986698   -0.02686831521575   10.44116903580827
C        -1.79193011753922   -0.46258719290840   11.29653266774855
H        -2.30053358196490    0.26900229059050   11.90926038881025
C        -2.14784693742872   -1.78460167692989   11.35346559004913
H        -2.93659775989382   -2.11467876008035   12.01360913118375
C        -1.48711910538187   -2.70762512494652   10.53901142857986
H        -1.77871207413686   -3.74790572471290   10.56889437562620
C        -0.48105032836949   -2.30787193239027    9.69597258507880
H        -0.01315464686829   -3.04652848514510    9.06354063509260
C        -0.07433708526476   -0.96116619191302    9.63024623744795
H         4.42688487986414   -3.26574783062419    0.92218028951857

