88
CSD_code = GUBCOV | q = 1 | S = 0 | Stoichiometry = C25H51INO7P2W(1+) | MND = 7
W         4.08265967576579    6.61741078561541   12.19090385560639
I         6.72451964004952    6.49961534345571   13.02476189376657
C         4.22219667110352    4.96884689628314   11.13313392377553
O         4.17845729522584    4.02811951679230   10.46461325598849
C         1.48403278872893    5.04558775948904   10.47725031754421
H         0.44916623208215    5.38134219785880   10.39274548238201
H         1.49462155133822    4.04771181941067   10.91982919002328
H         1.91385807430993    4.96517223807346    9.47752089957469
C         2.25751007759151    5.98487528408756   11.31555119543518
C         2.06041008949276    7.05677081343677   12.03845628920576
C         0.93568915524082    7.93631074684259   12.42780454394622
H         0.07664956206766    7.78270513351654   11.77164949489980
H         1.22674337594053    8.98747706084429   12.39092656283470
H         0.63312197274647    7.70254106698144   13.45077867543366
N         4.00729773856684    8.35383933589499   13.24613772794189
C         3.91233232558820    9.37029776239435   13.78898864355070
C         3.81000782105747   10.62021861446656   14.47478924015097
H         4.71522467617180   10.78668471425657   15.06017469236312
H         2.95068752942148   10.60973519717958   15.14622688729265
H         3.69559492967954   11.43731050866160   13.76149370089729
P         3.74032943966114    5.20993836491124   14.15674399503790
O         2.14679457180576    5.14164307963452   14.20517574345836
C         1.43526913887793    4.21912082130786   15.06771804377136
H         2.12017299228766    3.88982476685235   15.85736899947861
C         0.25712888774107    4.96833492288089   15.67171647531750
H         0.59858583366590    5.82082293568766   16.25295969297004
H        -0.30411196421162    4.30401991259405   16.32233253609853
H        -0.39932641757884    5.32292022564231   14.88063946219391
C         0.98319375484884    3.02519546657031   14.24200561593137
H         0.30809189416109    3.35461045415376   13.45563451015687
H         0.46547205085054    2.31144053368522   14.87655441664858
H         1.84323474475964    2.54019495484364   13.78900550554114
O         4.26375970551411    5.46616568295498   15.65523517954037
C         4.53091530115632    6.74587346629346   16.24081178881077
H         5.03603224865913    7.37521598772588   15.49519316890712
C         5.46900356401801    6.50128249658138   17.41354184692359
H         4.99808952262252    5.83877429778345   18.13467618624148
H         5.71059298164611    7.44180644497245   17.89900793809498
H         6.38879727284545    6.04188132368303   17.06183053801667
C         3.22608926331806    7.40652969316245   16.66236543579648
H         2.57934082809741    7.53796044463999   15.79509291412102
H         3.42771475591306    8.37465977356741   17.11270563040620
H         2.71613359984498    6.78214799796383   17.39225742868227
O         4.10918905616951    3.67244785185533   14.05515547101581
C         5.39751675858234    3.08487116752142   14.36584732578657
H         6.05218687327527    3.86082473397029   14.77604434158151
C         5.99343312721599    2.52025168644621   13.08715752328048
H         5.31864337672281    1.78770933848332   12.65177063079026
H         6.94308546852152    2.04292566801633   13.30853694822913
H         6.16785389964060    3.31107847501869   12.36182473644202
C         5.16450663029352    2.01055672545545   15.41662247995610
H         4.48967555817984    1.25035631433219   15.03168084077857
H         4.72750213204644    2.44968598159828   16.30967472392306
H         6.10976710209340    1.54561221437194   15.67964925184465
P         4.80632135122486    7.90338763143940   10.23621873706032
O         5.95441311775447    9.01245033398629   10.07013426522808
C         6.47084076500026    9.85025818611373   11.11790626889345
H         6.20890484681080    9.40830548884297   12.08878347535114
C         5.83694729890966   11.22930885082235   11.00560899847019
H         6.05346246672940   11.65938120915553   10.03103998257874
H         6.23703162065711   11.88389640042902   11.77468558821735
H         4.75755702711312   11.15405790870482   11.12346810572610
C         7.98365112209520    9.88899624928643   10.96689366427226
H         8.39790796396166    8.89163114083789   11.09028892372600
H         8.41390090866227   10.53704527220124   11.72381579382424
H         8.24887063176997   10.26543092199553    9.98280630344992
O         3.39170147320035    8.63773061768025   10.05258446282513
C         2.99667178506656    9.30475602600653    8.82827542319663
H         3.90242160915693    9.56345173490141    8.26790293693697
C         2.13143652137483    8.35561477865349    8.01303468875903
H         2.69089846673917    7.45656502633556    7.77070951033439
H         1.81746661028052    8.83824346768885    7.09177509959784
H         1.25041573439031    8.07720203149722    8.58654974694314
C         2.23877982331350   10.56683964980897    9.21179600624072
H         1.37345327681746   10.30806470696462    9.81730118279850
H         1.90022464117010   11.07647602826134    8.31444516314672
H         2.87411004040926   11.24455620119323    9.77600342448030
O         4.95926343489207    7.19382607528337    8.82416891663054
C         6.20236855797996    6.81121334148179    8.19368547006608
H         6.81660785339268    7.71279361313243    8.09665008322754
C         5.82740073182322    6.28034579016477    6.81860398564900
H         5.27070610996943    7.02920048489260    6.26154312726318
H         5.21317846176651    5.38915213241676    6.91886496918401
H         6.72736993840506    6.02864602448848    6.26597173079234
C         6.93889038543184    5.77779897666816    9.02669041624887
H         7.21517694659120    6.19701680388609    9.99232366250168
H         7.84718327867552    5.47418131498010    8.51398906759870
H         6.31582006301886    4.89981857925831    9.17870702067213

