102
CSD_code = GUBDOW | q = 1 | S = 0 | Stoichiometry = C43H51N3O4Re(1+) | MND = 7
Re        0.69928408054730    3.89584743865106    0.83513068568969
O         1.08435858806187    5.81717209478225    0.50621997533192
O         0.72297650550471    4.12543034831524   -1.29038294344142
O        -1.04450554335574    4.75675980999017    1.62741992731808
O         1.17682873857672    4.27603353549604    2.71272946982275
N         2.74091026573306    3.37061572199321    0.63469246990638
N         0.85689455602641    1.91374566963200    1.43243747393951
N        -1.11205274370428    2.75147574497728    0.15177696685829
C         3.66683504118079    4.17839227523217    0.11532796480948
C         5.00722571485302    4.07834190888208    0.42264231749517
C         5.42356147884519    3.09618277341956    1.31765578454465
C         4.48127242890574    2.22843648205139    1.82956295674282
C         3.14496123499942    2.37098291156773    1.45584029953416
C         2.06999022334170    1.47637430295229    1.83609219793806
C         2.22192974227538    0.23990846736076    2.45742872968999
C         1.11387727282473   -0.57163592017834    2.62974204023710
C        -0.10838144197679   -0.16370683801854    2.11442443378649
C        -0.20368155379769    1.08197552652566    1.50827215247767
C        -1.36786495446732    1.61135466827837    0.81686952255356
C        -2.63091505522470    1.02009740086169    0.78048063029261
C        -3.62937430245742    1.61691681472699    0.03590071965249
C        -3.34325818814690    2.78946063950187   -0.65356823525089
C        -2.07272879609813    3.32597892313223   -0.55737141821816
C         1.22294901559554    6.29219618457366   -0.68823803589180
C         0.93595279019316    5.32386983232827   -1.72634269587781
C         0.94323002595462    5.70931772961420   -3.08962337135193
C         1.26472955454776    7.02378077728053   -3.34259111206633
C         1.58949018195316    7.94585435762121   -2.33792943271771
C         1.60827394927548    7.61927626512766   -1.00186406405164
C         0.66921462528077    4.68051052941169   -4.17334521830070
C         0.67338058573136    5.29979729709219   -5.57246956118315
C        -0.69915310891121    4.02932139951807   -3.93230595877588
C         1.76470286955808    3.60667881008455   -4.10440345087255
C         1.99944735255089    8.58146211403339    0.10544509424268
C         3.17825672361035    7.97576505620221    0.88094259448537
C         2.42642733892134    9.94678827443325   -0.43749280811575
C         0.80435664228451    8.78139946886920    1.04783214712821
C         0.51285901115428    5.25349658782452    3.25674277900529
C        -0.77291859005566    5.49715419379517    2.64984631271501
C        -1.67542328858185    6.42660604171390    3.22510131663685
C        -1.21967138739599    7.10852317570919    4.32999536876935
C         0.03190382272152    6.87253632871806    4.91269311800205
C         0.92225959762060    5.94430915090702    4.41914046027498
C        -3.03034162730145    6.65576579727571    2.57826501371011
C        -2.82316072876234    7.11608260067219    1.12835874962284
C        -3.81444224375959    5.33526205872689    2.59923867031389
C        -3.85126196244456    7.71943139316076    3.31008844009100
C         2.26137260052284    5.62462995027853    5.06288518892749
C         3.38973634757538    5.82173827219274    4.04193346139328
C         2.23394344304404    4.16034882312352    5.52771877205423
C         2.54935644005175    6.51350827100564    6.27457848255539
H         3.31946041265243    4.93725864357380   -0.57213276264477
H         5.71291919091072    4.75890128438671   -0.02413266003775
H         6.46134139774205    3.01038669113277    1.59702428650367
H         4.76699675385104    1.45116896680462    2.51862529623530
H         3.19372786515491   -0.08686824675972    2.78744071604973
H         1.20677591209343   -1.52560615715590    3.12309893802317
H        -0.96844360702701   -0.80922102478171    2.17446400149414
H        -2.82288645700151    0.11771733095911    1.33690139064103
H        -4.61600514434173    1.18268758696839   -0.00398391921585
H        -4.09396741182009    3.28513185167398   -1.24647999118220
H        -1.81801845479707    4.24928671109322   -1.05560905867945
H         1.29242688285268    7.37927257369143   -4.35897494069392
H         1.83803526950948    8.94634372817534   -2.64921570875727
H         1.64425573307815    5.72530514541565   -5.81311545001669
H         0.45792134599450    4.52725870959493   -6.30661099430389
H        -0.08823627152057    6.07060219251650   -5.66197092465936
H        -1.47806821002515    4.78805222432331   -3.88825419821937
H        -0.93114187222833    3.34598131125006   -4.74544695795216
H        -0.69265348613853    3.46658531991349   -3.00357294251513
H         1.76478976769132    3.12347693203961   -3.13078765484612
H         1.59136770009781    2.85101225100807   -4.86636621847709
H         2.74247171746528    4.05195017295031   -4.27624279639150
H         2.89831465033380    7.02680100859827    1.32937081970743
H         4.02652917447921    7.81528210053299    0.21754264938618
H         3.48651832373033    8.65253417671982    1.67424296076803
H         2.71725334129804   10.58693129922684    0.39204198012412
H         3.27899014045796    9.85492130326842   -1.10613219771163
H         1.60932953676785   10.43336683597847   -0.96397088240523
H         1.07459649959622    9.46162123455814    1.85217982133345
H        -0.03440415943736    9.20802948077854    0.50163775459210
H         0.49074045901378    7.83975847095505    1.48966894624693
H        -1.83929661158965    7.86345061352816    4.78475793756731
H         0.28599726934892    7.44946729183773    5.78593198643524
H        -2.30677617025217    8.07319038353691    1.10956141822052
H        -2.23232182373507    6.39172431209892    0.57450900132059
H        -3.78423373813563    7.23147979153355    0.63271139272621
H        -4.78796511684267    5.47327720779038    2.13466538981338
H        -3.27897324496637    4.56038083656499    2.05744587992386
H        -3.96452946173359    5.00351591114694    3.62447578103877
H        -4.04330942019095    7.42727425886514    4.33951369325561
H        -3.34615533013979    8.68206217635038    3.29925390193690
H        -4.80966327460406    7.83859927475108    2.81021553345182
H         3.23010731213477    5.20490100766363    3.16096643384596
H         3.44102949054162    6.86402383514491    3.73650651361300
H         4.34443584390101    5.54439587318336    4.48344649791130
H         1.42871416820528    4.00749012209351    6.24314591117168
H         2.08104927802078    3.49042869616732    4.68546346484878
H         3.17589249924275    3.90527547802242    6.00786949602676
H         3.52311438765751    6.25638461820891    6.68494857443462
H         2.56944911131647    7.56390473580954    5.99474604085698
H         1.80768455796863    6.36539202487151    7.05530146678089

