101
CSD_code = GUBLIZ | q = 0 | S = 0 | Stoichiometry = C32H62N6Zr | MND = 6
Zr        5.43175247842870    4.41740923879811    4.04684408390814
N         4.84996708587139    2.26653608695238    3.39588522875381
N         6.80531777333593    2.73922794381106    4.31993497909010
N         4.00449893617218    5.34458405709375    2.62074557406712
N         5.94902450981199    4.60449266966650    1.84809239793965
N         4.38521331437472    4.26487529180176    5.82435401269831
N         6.53160799453935    6.09905608470070    4.58731821488651
C         3.84316552634771    1.44743776328481    2.76093348786456
H         3.72432429420161    0.46618944832611    3.25725291834109
C         2.51050105810298    2.19655680180985    2.86470284998742
H         2.26505194522704    2.32949591530254    3.92137507547953
H         2.65887026746288    3.18404876712449    2.41995334393114
C         1.38634437760805    1.45600307929082    2.14695690301846
H         1.22684587206340    0.48346899302237    2.62026513210976
H         0.45624709216111    2.02273810123078    2.23091580301202
C         1.73972191757200    1.24816899971739    0.67786623634881
H         1.84895541455062    2.22028133345419    0.19183313150830
H         0.93844362805687    0.70555542639521    0.17079798292918
C         3.04913449264642    0.47558311960021    0.55938889659375
H         3.30944935865749    0.33893553581768   -0.49313593871360
H         2.92398062273631   -0.51622687024360    1.00196588395427
C         4.17491897414470    1.21319295319885    1.27749852798266
H         5.10408906314826    0.64374928755334    1.19631821492492
H         4.33649582398452    2.19141316891997    0.81692840517431
C         7.99287776433574    2.45843174528830    5.09582451532785
H         8.43427828521353    1.47530902463678    4.85989558502990
C         7.61454365091995    2.49306724617316    6.58824014705986
H         7.03310600346466    3.40893131078939    6.74998032244767
H         6.96092210476781    1.64517820085423    6.81063549219933
C         8.83620917371685    2.46105296892544    7.50083021732735
H         8.51868099679180    2.52423308848082    8.54415524317964
H         9.36457154172389    1.51238725216820    7.37123667977875
C         9.78083142257264    3.61073410187706    7.16980566151783
H        10.65102837416188    3.58130589419634    7.82965723527930
H         9.26692937014094    4.56054986639167    7.32743459958373
C        10.22507671704156    3.51056512316379    5.71521786928133
H        10.90550248294782    4.33042520802040    5.47510365492330
H        10.77107663116116    2.57359508951385    5.57187010585028
C         9.02362635525684    3.55005924913433    4.77483493166798
H         9.36717847047412    3.41690685908032    3.74554503048496
H         8.50342344571807    4.51293492523217    4.83660716755762
C         5.98606174557327    1.79739647396849    3.86680226151475
C         6.37609687981302    0.32762466908321    3.89324870464333
H         5.60285617273439   -0.30025664309957    3.46303999646235
H         6.55397073213715    0.00410225267299    4.91772760351854
H         7.29177365231334    0.18325401512733    3.32094846633672
C         2.74219705759410    6.05022946254308    2.56103405462347
H         2.10801504018031    5.70042652807317    1.72362841369836
C         1.99130283127778    5.79299739925501    3.87200871590712
H         2.63164549416892    6.13792611905887    4.68716860943977
H         1.83489592172948    4.71985723425574    3.99949131198842
C         0.65578417092001    6.53191216155123    3.90078003466743
H         0.01822322643986    6.16947551213562    3.08965408490663
H         0.14099258886061    6.33079076976063    4.84269285235426
C         0.87310834092699    8.03311016912282    3.73843908200216
H         1.45502925013737    8.40643565646848    4.58379421886381
H        -0.08708143368719    8.55407129034466    3.73434776676933
C         1.62607507876538    8.31893048542389    2.44326869046416
H         1.80574213961474    9.39210397251099    2.34489087643943
H         1.01457796043086    8.00538261839928    1.59281601060583
C         2.95483156358021    7.56919947542503    2.41774444991307
H         3.48703121653844    7.78894847229483    1.49007418548282
H         3.58464363113601    7.89707465185629    3.24888294118466
C         7.01073739290816    4.42513982985429    0.88370768364618
H         6.67549449234692    4.56069965737592   -0.15762179773002
C         8.11366454186397    5.45638111623578    1.17974535609252
H         8.36706753220745    5.36838240838935    2.24141926942783
H         7.71857400011701    6.46123011298490    1.01162023094331
C         9.34754337691579    5.23965644157004    0.30901987050821
H         9.08342678904983    5.39193330812746   -0.74119548873663
H        10.11416494487138    5.97351868602095    0.56804426306839
C         9.89565987090707    3.82841053181486    0.48618269264266
H        10.76633873754786    3.68123874822214   -0.15740231396231
H        10.21616251527695    3.69151201218414    1.52116635685653
C         8.81658295007446    2.80571173696883    0.14845637277988
H         9.20457211748960    1.79351903594161    0.28604742864689
H         8.53724018664516    2.91280382076155   -0.90334244723793
C         7.58590763834782    3.00996916711379    1.02675264526582
H         6.81571503457976    2.28314317627103    0.76201265567495
H         7.83684829988500    2.86344010262537    2.08057016769231
C         4.78951649546858    5.16215008964839    1.56350000341007
C         4.39212021303244    5.54022425807619    0.14339517354677
H         5.00277829725552    6.36994334754814   -0.21103833455785
H         3.34795451265758    5.83034017335993    0.08445924072199
H         4.54830895809838    4.69194981535062   -0.52238220904973
C         3.91591008627755    3.02942640915046    6.40830046471824
H         4.37289985049542    2.84551354967007    7.40314099585441
H         4.15357140592292    2.18057072048709    5.76323857058486
H         2.81735722817872    3.04587180556712    6.57248828375517
C         4.06448168029969    5.34774786789538    6.72848446399346
H         2.97919427067469    5.38032813452310    6.95852975968649
H         4.35789265526830    6.30684736609046    6.29470945790906
H         4.57990585521735    5.23505851272183    7.70536290835631
C         7.08200281788798    6.43904485266234    5.88219975848224
H         8.14534387286889    6.75038066761294    5.80459114486582
H         7.01473775962436    5.58851913834965    6.56389458325953
H         6.55059361226730    7.29417771291867    6.34849927415875
C         6.51674134747349    7.29612231788675    3.77754463731819
H         5.91956716422008    8.10760260515025    4.24813445524542
H         6.09798513514545    7.09157419809547    2.79020137102958
H         7.53877848782715    7.70738346799492    3.64251391505451

