113
CSD_code = GUBLEV | q = 0 | S = 0 | Stoichiometry = C36H70N6Zr | MND = 6
C         1.86740378472763   15.90772823243800    6.69646637623787
H         2.05916634606025   15.89470657744221    5.60720414149120
C         2.89237847036903   16.85272024590165    7.34819376676736
H         3.90071999297079   16.46145723518481    7.20235839487752
H         2.70101762666619   16.88419127203741    8.42309926719032
C         2.78654418440576   18.26183950921135    6.77351555153120
H         3.52092913270205   18.91286990659739    7.25383682407531
H         3.01101597732169   18.23933131589371    5.70380429813315
C         1.38164031203784   18.81721983458553    6.98322682109964
H         1.17903558171887   18.89221755034883    8.05409988714359
H         1.30759309189381   19.82009965376975    6.55616274164567
C         0.35160899933392   17.89688562231200    6.33627538404081
H         0.51859120935768   17.87489789795989    5.25587092141464
H        -0.65490212509725   18.28664675052256    6.50756263287844
C         0.46063575861173   16.48070505737395    6.89484535890611
H         0.23321034635445   16.47412474224399    7.96366257637787
H        -0.25416223078174   15.82584924814599    6.39358372194013
C         3.69996775444213   11.46733957753412    7.26570162347546
H         4.68590409255352   11.92474959609940    7.07402787476017
C         3.41429234852209   10.47342667151553    6.12505748496915
H         3.38701217033685   11.00101549350626    5.16826048249538
H         2.43064437762167   10.02836385387529    6.28470442679551
C         4.46402532380455    9.36746911233259    6.08478336018752
H         4.24209878799840    8.67687837030303    5.26762219800623
H         5.44876991447052    9.80238761241207    5.89490491488949
C         4.48931333044408    8.61678564258176    7.41186012683349
H         3.51558273146010    8.15407733677356    7.58305143586457
H         5.23931698707586    7.82318987440714    7.37741123503809
C         4.80046587042990    9.58081150713408    8.55219838357108
H         5.80174512401496    9.99513297388996    8.40475059870240
H         4.80094636103975    9.04459745007354    9.50352365442978
C         3.78151967172419   10.71716084096026    8.60222805413628
H         2.78199467167745   10.34357708658461    8.83983620557766
H         4.05549626659617   11.43015841100084    9.38188214433663
C         2.80374768868330   13.68425382559943    6.85581339964981
C         3.91871151318490   13.98142384270775    5.86176998401290
H         3.68599730520106   14.84738126751249    5.24925068178336
H         4.07843172040045   13.13132070202819    5.20345072654795
H         4.84820278199367   14.18658052848764    6.39319918134848
C        -1.33027695317371   15.14420541068628   10.20515709962488
H        -1.91776067218392   15.95587832164098    9.74277951385322
C        -0.15824234149718   15.77520337395752   10.96604607410232
H         0.45355885436529   16.34883530090243   10.26416443395079
H         0.45480542676052   14.95916091204760   11.35883965382298
C        -0.63542339058938   16.68828932946970   12.09228529580779
H         0.22636931504249   17.09750931774950   12.62414090137873
H        -1.19491912257249   17.52822352451921   11.67057991271221
C        -1.53281042147909   15.92856008896487   13.06295836166057
H        -1.88458881014936   16.59832675003020   13.85108191985660
H        -0.96052677749974   15.12609664211713   13.53287479707277
C        -2.71995647240390   15.33235337330308   12.31477614413404
H        -3.31841608739505   16.13911405200928   11.88331651817887
H        -3.35858590908109   14.77823629101536   13.00675549401154
C        -2.23610725031124   14.40400032630539   11.20530963957750
H        -3.09143229728859   13.97167036807590   10.68212792077084
H        -1.66140439195041   13.58287433507814   11.63834124503897
C        -1.18480928901425   12.93324971562248    5.88932104489366
H        -1.60479071133358   13.83829444609238    5.41219729362942
C        -2.23539725112622   11.81155328897320    5.80952373235848
H        -1.82236266397068   10.92466787163846    6.29302708804369
H        -3.13285171416754   12.10182446028850    6.36090865937182
C        -2.59046242016953   11.48836801407476    4.36182625741079
H        -3.33436205473437   10.68860353010261    4.33310097925867
H        -3.03068806550282   12.36918531484543    3.88651961533501
C        -1.34347869240415   11.06908128267461    3.59033925943685
H        -0.93154955645121   10.16101613746813    4.03601080531131
H        -1.60277283180804   10.84744240520743    2.55241228119039
C        -0.29671606123042   12.17745863226076    3.64204133184046
H        -0.69037173176440   13.06619558415306    3.14121028532200
H         0.60280048415445   11.86566654392422    3.10606816520072
C         0.05593196865377   12.52213235804377    5.08633056701212
H         0.51330458187130   11.66201208646514    5.58437421473448
H         0.77691787364456   13.34277448381205    5.11202699784222
C        -1.39176927545536   14.03315567964924    8.04665070828431
C        -2.69612977463967   14.73470536389532    7.69134472682412
H        -3.10890113182071   14.36817960556807    6.75751790425914
H        -2.53100602142627   15.80790798711417    7.59692909215347
H        -3.43236353907302   14.57021208648907    8.47568790903218
C         2.98686412315369   14.48429025160810   10.44515673521694
H         3.06496132317488   14.89124393129203   11.47245812974780
H         2.54308807846573   15.26099729940020    9.80771566524847
C         4.42779843431438   14.24210295903379    9.94071030565028
H         4.95188058855910   13.53345209425997   10.57912201641726
H         4.98623931449524   15.17690226254536    9.94115852361871
H         4.39215385923397   13.84706266523830    8.92831415066230
C         2.37496073582460   12.39992909349599   11.48840106202182
H         3.45702963367963   12.29822749058455   11.69281726397837
H         1.99415175999993   11.41104983487720   11.20077802708430
C         1.70424615105038   12.80928308250160   12.82036339803109
H         2.08443364393152   13.76876271649006   13.16581134609101
H         1.90764870316924   12.06527235254308   13.58784015095074
H         0.62712946216195   12.89009171441811   12.68812741995751
C        -0.64832465074553   11.00295555232307   10.33202492472254
H        -0.44083898330583   11.85233461861939   10.99506846275836
H        -0.51386867438820   10.07493736229606   10.92338544942467
C        -2.13241086143726   11.07288321183424    9.90860012897457
H        -2.26469456537870   11.88462068470990    9.19482529090282
H        -2.75887696361501   11.25222901248370   10.78010626846469
H        -2.45753783694495   10.14103448558809    9.45059071120979
C         0.13909566647413   10.00997400646915    8.28378789108519
H         0.79391569403278   10.22946019679304    7.43039375576590
H        -0.89826724891609    9.95495196482419    7.89944780517484
C         0.48977572413664    8.60250059924015    8.82032522466641
H         1.45826924136862    8.61601455096516    9.31565200158572
H         0.51983193747078    7.88567013497865    8.00163556146746
H        -0.25563233401408    8.26699447307902    9.53705108236641
N         1.91778072171474   14.57343028886119    7.25976072388910
N         2.66244976649572   12.47518174408835    7.38907227172332
N        -0.78670226042432   14.23933337427165    9.21047033344753
N        -0.76536483612986   13.18788263130955    7.25045565537595
N         2.12249499191682   13.32291664560218   10.39682118277042
N         0.31515667885350   11.07564883659041    9.24900746799584
Zr        0.97529490847680   12.96338105126410    8.72128292408744

