109
CSD_code = GUBPAV | q = 1 | S = 0 | Stoichiometry = C64H40CuN4(1+) | MND = 4
Cu        2.66503620992932   11.21350911993100   -5.37311498946196
N         2.69615789076476   10.52495719045041   -3.50290187024604
N         3.92152770383904    9.56976787293474   -5.71277175122055
N         2.57559100020726   12.99667516250334   -6.29210986575209
N         1.32174156831927   10.67833318948853   -6.85010991017498
C         2.10011501592243   11.03195682890626   -2.43443117184960
C         1.95401415348281   10.27228531456052   -1.25585512399662
H         1.40451910136955   10.68948996995804   -0.42662471748990
C         2.48030057439183    9.00903741344442   -1.18835923902115
H         2.37465390202194    8.41012317464643   -0.29582182563345
C         3.15996687230160    8.48156158750323   -2.30173838939200
C         3.73186962949455    7.17977409668036   -2.31850437482551
H         3.67081449969889    6.58522481725864   -1.41932088139977
C         4.32324705158092    6.69077405534620   -3.43612502783118
H         4.74318793705626    5.69652128047178   -3.45307891103992
C         4.39689684223748    7.47113605987328   -4.62198011883057
C         4.96867742341766    7.00379427805105   -5.81838893787132
H         5.39455620071482    6.01208106035110   -5.85225518019039
C         4.97059552680024    7.81132548724193   -6.92662663550684
H         5.39793638635011    7.47908952633513   -7.85952843369639
C         4.43898650112730    9.11070931591557   -6.83946557275493
C         3.86567624948616    8.77832336848929   -4.63021180978461
C         3.22684800899635    9.29061819034488   -3.45456787573340
C         1.55108308227532   12.39112791223383   -2.51774963904037
C         0.77220565907259   12.73194714782564   -3.60110383930891
H         0.60651437864416   12.00544393802116   -4.38394848121237
C         0.15087013609308   13.98211442217381   -3.68489719054919
H        -0.46273591945597   14.21021357495674   -4.54373378029106
C         0.29646005898171   14.88876837391384   -2.67309959503895
H        -0.20462845661873   15.84448445731639   -2.71073005410305
C         1.28959681524559   15.53793721289843   -0.52373244978533
H         0.76495262087835   16.47957710144881   -0.58796589095930
C         2.11365106707038   15.27061751116487    0.53213467199434
H         2.24165505940290   15.99238532748896    1.32423405576642
C         2.81684284031429   14.05874757600962    0.57940053949660
H         3.49245700207434   13.86945271048586    1.40019853275411
C         2.65600829982771   13.12196460647493   -0.40400815327057
H         3.22617375113552   12.20586706144549   -0.36652624926242
C         1.77385208959794   13.34340593624153   -1.48236469423657
C         1.11102235122174   14.59769879583990   -1.55983533518353
C         4.40890103659758    9.98629775222357   -8.02322532023536
C         3.80699416750740    9.52718714214893   -9.17170784548867
H         3.41170146183915    8.52251611478147   -9.20402285252848
C         3.67183967725378   10.34906227476583  -10.29656273406485
H         3.18263400645504    9.96156798902815  -11.17733765938412
C         4.15173903765164   11.62824069838206  -10.27405378213495
H         4.04406441755290   12.27158874795809  -11.13470369233977
C         5.38019714356023   13.41849944956371   -9.11689895329970
H         5.26221528825262   14.04316949215644   -9.99031261092723
C         6.07494696772354   13.86551073761944   -8.02899093332247
H         6.50560110200839   14.85532854987807   -8.02402178053314
C         6.25874396011587   13.02828724055500   -6.91900784662661
H         6.83726389187127   13.38238993078701   -6.07895224634465
C         5.72182944089057   11.77078319818286   -6.90342635550431
H         5.89580452927428   11.11588987482177   -6.06277693588503
C         4.96791954188113   11.29197471268966   -7.99426813973337
C         4.82257926398574   12.12282603922340   -9.13703905188295
C         3.13050641511772   14.15123910974957   -5.95528089885281
C         3.23528137799263   15.20310490131008   -6.88960556212049
H         3.76542555225984   16.10015021054082   -6.61182410416618
C         2.69960287894508   15.06338249529724   -8.14212917168813
H         2.77707322220834   15.85644083640648   -8.87110068836031
C         2.03925956385746   13.86839259246592   -8.48241982474381
C         1.43681281560949   13.64119906988356   -9.75025240996501
H         1.46912409321507   14.43771865284796  -10.47859672826340
C         0.84499217318566   12.45665179402481  -10.04441884326201
H         0.39819674965963   12.28549298791948  -11.01220661309625
C         0.79551652463381   11.40992602860718   -9.08369636339183
C         0.18760603465253   10.16288679900772   -9.31894037646894
H        -0.27371765804393    9.96897945502836  -10.27624641383069
C         0.17438850681836    9.21282550184826   -8.32824672604906
H        -0.30769084156825    8.25903439897955   -8.47696201119394
C         0.75407870257163    9.50785646405769   -7.08084428507692
C         1.37131733830497   11.61052748561437   -7.81205352602734
C         2.02016211480029   12.85038827633057   -7.50788929427816
C         3.66843294087563   14.30503369283558   -4.59946830302436
C         4.43038506353732   13.29076084380188   -4.06307118294366
H         4.57630667888690   12.38677053497777   -4.63659053042875
C         5.05857395424421   13.43036861621273   -2.82220347920807
H         5.66298300881468   12.62040685606199   -2.44174563701624
C         4.93301304463847   14.59487107509512   -2.11791162645306
H         5.44362074761213   14.72975854389914   -1.17607263202221
C         3.94800853840068   16.82759053568859   -1.85842147185027
H         4.48028911486341   16.93146115396990   -0.92462320698194
C         3.11724947635802   17.81750987966327   -2.29994563326545
H         2.99215355469048   18.72456587471629   -1.72866997955099
C         2.40012871385605   17.64535638115303   -3.49229947602858
H         1.71482508189034   18.41509862880557   -3.81459708526825
C         2.55791825576180   16.51260958513152   -4.24240419141416
H         1.97345006000283   16.38304592685007   -5.14085592365877
C         3.44976578896669   15.49402660720416   -3.84516840361658
C         4.12075589404986   15.64071489183961   -2.60110138247063
C         0.70688735101967    8.57382042835846   -5.94132463256005
C         0.13642805931849    9.01166069587753   -4.76838597963522
H        -0.29597397801572    9.99977358189427   -4.72604402310554
C         0.06415314674725    8.18390773409781   -3.64262212289461
H        -0.40839190925485    8.55393308953193   -2.74512785164239
C         0.58675417618268    6.92230089357091   -3.68606064565615
H         0.53891212096082    6.27502312795656   -2.82284550274040
C         1.73822437520232    5.13601645964926   -4.92121344543601
H         1.68387834926724    4.51550317621806   -4.03886831805241
C         2.31881013776994    4.66886414649716   -6.06599227254295
H         2.72985755550474    3.67161192026955   -6.10473413874389
C         2.38038864184298    5.48564835489011   -7.20449546063981
H         2.84042354712181    5.10639006680095   -8.10478474978759
C         1.86190855252281    6.75025143526221   -7.17866569156973
H         1.91719628386565    7.37436704086719   -8.05746858816353
C         1.24714150933313    7.26208273241362   -6.01731782850820
C         1.18973457804776    6.43455645680834   -4.86345585641781

