157
CSD_code = GUBPUP | q = 0 | S = 0 | Stoichiometry = C58H86Cl2N2P4PtSi4 | MND = 4
Pt        2.66860283026612   12.03485804806757   13.63235916752889
P         0.36696551627329   12.13061838508660   14.09485678532242
P         2.17662891608003   10.27289392240095   15.01324442078263
P         3.22757608029536   13.87738688214916   12.29060495316650
P         4.90406965776083   11.86752257599547   13.14941016639131
Cl       -0.48960517516149   11.38342643734744   12.47511403232514
Cl        3.38177777517317   15.39198687793324   13.55148733486026
N         0.54132227121943   10.60270497440252   15.12405500737549
N         4.99420979492628   13.28337353526375   12.26987991265854
C        -0.68832881709614   13.22585742284099   14.86645276480607
Si       -2.29822943474028   13.74654104015817   14.03874194688980
C        -3.30560183593799   14.81650867148771   15.25506804744279
H        -2.75405074492489   15.68602575574292   15.58871319797958
H        -3.59681805080367   14.25270309721419   16.13439317791801
H        -4.21374399858228   15.16644284930288   14.77579309729128
C        -2.03316479813223   14.73611580187328   12.42566914850536
H        -2.90544032570304   14.69452127327323   11.78020493131291
H        -1.18678322825854   14.35112822032618   11.86580595565391
H        -1.83251535451038   15.78011109989863   12.64108700982637
C        -3.51235508666448   12.32200533513428   13.61525450483915
H        -3.71687002270398   11.69899760872674   14.48023468018013
H        -3.15561640443043   11.68168498252168   12.81643394650112
H        -4.46188401597900   12.74136307258111   13.29399089778088
Si        0.19386406713637   14.38321233847329   16.05939904071910
C         0.22936373468918   16.20115514212674   15.46653569728439
H         0.95921992654109   16.34986971965477   14.67763905722904
H         0.49144220488848   16.86561768224645   16.28396716980253
H        -0.73500678138719   16.51538002748668   15.08516787675454
C         2.02840783316962   13.94339089022864   16.38888171659637
H         2.18692032566125   13.51634747285170   17.37320519704646
H         2.65514132061526   14.82587919098656   16.30923536339245
H         2.39079353358390   13.21323493015085   15.65468179786546
C        -0.65654203786205   14.35473022713539   17.77524476106086
H        -1.68203707221194   14.69475097324758   17.70217792780328
H        -0.14077397630377   15.01648998902735   18.46418332908151
H        -0.67338794007247   13.36494206353155   18.21942937419531
C         3.00388176500018   10.29708682010364   16.63309769448420
C         2.41366848307877   10.90739262345335   17.73472063258433
H         1.40542464534613   11.28399482913446   17.64729636868335
C         3.11511608119547   11.04090591902520   18.91845697743488
H         2.64632931748500   11.51172080247945   19.77038122531659
C         4.41842140787418   10.58033849715022   19.01033497378242
H         4.96552492168562   10.68441247322616   19.93533391360308
C         5.02376892639031    9.99748486935998   17.90867984247633
H         6.04498604029605    9.65133083230197   17.97009219607654
C         4.32516370887454    9.86767163311291   16.72411165166585
H         4.80657573728356    9.43496271692657   15.85870222903278
C         2.46718867603061    8.61612998306282   14.30450878488652
C         2.13821781161080    8.50759659036351   12.95624699804516
H         1.71606476129335    9.36649564026857   12.44823648600743
C         2.34348957898090    7.32218341774821   12.27806475101893
H         2.08711177455509    7.24759187882147   11.23202940404745
C         2.88647963111169    6.23485492645448   12.94360332559265
H         3.05432717126527    5.30672089271448   12.41764605976603
C         3.21237242003780    6.33605962912023   14.28704545262856
H         3.62896568347195    5.48553192024959   14.80734630691912
C         3.00559699243755    7.52051589081144   14.97091652539583
H         3.24916365957130    7.58834916429790   16.02217015625485
C         2.76876281997607   14.43990512379149   10.75051463171820
Si        2.33732516377344   16.25108237403581   10.46385514039777
C         3.68050218182293   17.52395639786747   10.97077204899955
H         3.81853667743823   17.59120164635050   12.04388768394941
H         3.39355417451000   18.51088432610168   10.61828069989519
H         4.64151194664924   17.29360208203522   10.52231821369643
C         2.13873522060285   16.55707597902932    8.59113804602467
H         3.07462201867029   16.41455160061321    8.06218005983110
H         1.81633858791199   17.57791769342785    8.41523633685160
H         1.40390352971372   15.89912120688479    8.14527352650773
C         0.72512697938373   16.79163309399068   11.33524387014505
H        -0.14460217047499   16.43111978822893   10.79646112512676
H         0.64899230290017   17.87318522954588   11.39817243309739
H         0.67079103109423   16.39548364082526   12.34420702527659
Si        2.08373224333460   13.09381408683763    9.63021999627724
C         0.22783823614438   13.33016601783916    9.23345873577918
H        -0.39978314470682   13.01706851517191   10.06163110896882
H        -0.05734559699343   12.74299635062647    8.36608142952742
H        -0.00491679007799   14.36660992408683    9.01880819415376
C         3.03827010849214   13.05371791029340    7.96984524538919
H         2.94529333552876   13.99837075574899    7.44882896662793
H         2.63967297118383   12.28070885848576    7.32017627918483
H         4.09779330605769   12.85876752931122    8.10107444708842
C         2.21144543091309   11.31815464408044   10.33558049473705
H         2.94280467154793   10.71100859562550    9.81287598893046
H         1.25508031520877   10.80940813171665   10.27051024890441
H         2.50360310994010   11.34090969565200   11.39279514279747
C         6.02307242841378   11.92335466548612   14.58966873455859
C         7.15934052873869   11.14449674635367   14.78035601190382
H         7.47782750605323   10.44944468776141   14.01566156037490
C         7.89203217334072   11.27539294135550   15.94636566880726
H         8.77654729739662   10.67169903678387   16.09100595577136
C         7.50010789343676   12.17574598489520   16.92460313618789
H         8.07726178357051   12.26884396076677   17.83260366642818
C         6.37066467693950   12.95628183533522   16.73633744313720
H         6.06177213137740   13.65867582072519   17.49576386430885
C         5.63523842576961   12.82745127746524   15.57464995912768
H         4.74932138794895   13.43044970868737   15.41349859127761
C         5.37634871369493   10.41548713942385   12.16147048892682
C         5.53182298877083    9.18203720444906   12.78780877810734
H         5.47055104516353    9.11767396067199   13.86486194639948
C         5.75552726996068    8.04135051612762   12.04122375912930
H         5.88381992268004    7.09107312533797   12.53837972483119
C         5.80423870512504    8.11608755961127   10.65858186467644
H         5.97870381084040    7.22429593994584   10.07541276989910
C         5.61399781095364    9.33383395230619   10.02563885015761
H         5.63134497174466    9.39134011136170    8.94693098464125
C         5.39157354802103   10.47615418071273   10.77152730526009
H         5.21425619547479   11.42505648609216   10.28648921373475
C        -0.50209056579954    9.79453602407016   15.78346220801913
C        -1.30058559014320   10.64982796344320   16.77218023123352
H        -1.75251099171821   11.48611108122858   16.23829065406899
H        -0.62981134735787   11.06473879690255   17.52602459530477
C        -1.47106227909798    9.22736672129779   14.74130798113342
H        -0.91361155179689    8.62921540423815   14.01495177714406
H        -1.94968194185261   10.04897771908257   14.21150672366164
C         0.13236757943987    8.62055776270766   16.53316208676179
H         0.84358504540163    8.98792326425701   17.27528857542231
H         0.66684717631918    7.98892388719293   15.82144863801753
C        -2.54251943170252    8.37518353957653   15.42177044959698
H        -3.22033724846837    7.98122021677002   14.65650537572051
C        -3.32956660824805    9.23604690885850   16.40768449353991
H        -3.82546255201632   10.05130446474293   15.87852097476935
H        -4.10157412521078    8.63473825056541   16.89352341292022
C        -2.37315642772456    9.80168992489118   17.45459189632298
H        -2.92964292597367   10.43285963135497   18.15623156381772
C        -1.71541124455275    8.65101877330645   18.21379036153381
H        -2.47586789323741    8.05185980321719   18.71967327895407
H        -1.03645642447703    9.04288688457580   18.97506930777381
C        -0.94131702814708    7.78200566454433   17.22563583189802
H        -0.45534927788495    6.95841000810350   17.76235098240901
C        -1.89117651519646    7.21647255759432   16.17274293853101
H        -2.65751441602894    6.60260112634806   16.65126648982743
H        -1.33831502232189    6.58152902052964   15.47602309684127
C         6.20765529224691   13.93020435394413   11.73580626702187
C         7.41138007637220   12.99156457759375   11.85673760935285
H         7.57597470741981   12.75249361291133   12.90856771199151
H         7.22160650571332   12.06408561690744   11.31444226311214
C         6.51724251153941   15.20877739763939   12.52230374472719
H         6.63910544103389   14.96165893113367   13.58079117130309
H         5.68253986185238   15.90158309278959   12.42849995416853
C         6.01216314570155   14.29764382825397   10.26222494840704
H         5.15213299182390   14.95979290810254   10.16706714327324
H         5.79696730423750   13.39677570180163    9.68504182436437
C         7.27317492206462   14.96786907362444    9.71679995107542
H         7.10942525470037   15.22562245381536    8.66462358840386
C         8.45636420939538   14.00851008927296    9.82983128521780
H         9.35730759669572   14.47410070874998    9.42393941154376
H         8.26009438294762   13.10056552189618    9.25445044791375
C         8.67016841429696   13.65542428851991   11.29974057793017
H         9.50893878056789   12.95492502176174   11.39126161725577
C         8.96871589934118   14.91862796637381   12.10287695417363
H         9.13641999109973   14.66136925440708   13.15174042967077
H         9.87489481914943   15.39739872074482   11.72506353290551
C         7.78308892972546   15.87227516827920   11.98042441271149
H         7.98237738217726   16.78108167095285   12.55899713812825
C         7.57659297210049   16.23603545443702   10.51161397429673
H         6.75149238208716   16.94350313187115   10.41651057686463
H         8.47494807585479   16.71644754775377   10.11684678951735

