115
CSD_code = GUBQUP | q = 0 | S = 0 | Stoichiometry = C46H63Cl2N2PRu | MND = 5
Ru        3.21386675937881    3.13110355779915    5.50068472134764
Cl        1.49854632757764    1.58443304224320    4.97532084924062
Cl        4.82847349597337    4.56703392055610    6.48276369706024
P         4.86318470045616    1.44297618362570    5.47650182823547
N         1.19758442234934    5.39794385223868    5.17406609215432
N         1.06355531880147    4.60364631602966    7.15824860134081
C         1.72296929621769    4.45733282032071    5.98803326675306
C         0.23039286148543    6.12017077110120    5.82351669024793
C         0.14504396804224    5.62074399806248    7.07305083881959
C         1.52502521968384    5.67876875498861    3.81959914152642
C         2.48544134673917    6.65384748336143    3.54539565593964
C         2.73020305680849    6.97456672075408    2.21814846677846
C         2.03137166113865    6.36735341931928    1.18507743738765
C         1.05654487908023    5.42798090836089    1.49395463847475
C         0.78070093572072    5.07456735874858    2.80454124509895
C         3.21421456224829    7.33304606175711    4.66287218699542
C         2.28890991325299    6.73764179909916   -0.24316379446394
C        -0.28908031139462    4.08520139164036    3.13882997561621
C         1.19379336361468    3.88578227103589    8.38298092361362
C         2.03203418151102    4.39485470313860    9.37637685676713
C         2.03998575822367    3.76345048753504   10.61340441244406
C         1.22867250321257    2.67039209671367   10.87736924754680
C         0.38786872211166    2.20442655984073    9.87532063747009
C         0.34044718500703    2.80627379724304    8.62703196769451
C         2.87458479813436    5.60320238986460    9.12353380594515
C         1.23559628345232    2.00582158892780   12.22004345314106
C        -0.62297974156810    2.33916142548495    7.58360474880764
C         6.64673537851467    1.87996909329469    5.16076382604258
C         7.63432286647970    0.72002710510210    5.25776261816773
C         9.06145761095501    1.26560309832683    5.23100295507664
C         9.30348973669973    2.06508136939153    3.95393873068407
C         8.29229858710210    3.20180434682566    3.83326669834846
C         6.86723344066548    2.65443821039906    3.86277662191049
C         4.90896317013843    0.83777892141002    7.24184492987142
C         5.76678662048472    1.66940915626498    8.19583347259561
C         5.66700585377752    1.09732928869606    9.60822003663304
C         4.22219993266597    1.10143390767619   10.09191524958534
C         3.33537986792412    0.31004903932212    9.13704383361882
C         3.45312646643351    0.85352948887268    7.71889432064257
C         4.40417248209657   -0.09985244454316    4.51731538511163
C         4.87026624395280   -1.47255959589365    5.00021745554140
C         4.20030171505091   -2.55464110911466    4.15040061415916
C         4.51443123527890   -2.37558306761211    2.66861092943871
C         4.08074519613759   -0.98994886769552    2.20105895907605
C         4.76996548811793    0.07816654143232    3.04344599056442
C         3.67139824276489    3.86508775675110    3.79216982764349
C         3.49448733752395    3.48092544952292    2.42761691127977
C         2.59437487325884    2.49303690587674    1.99185393124743
C         2.47905569095635    2.17802486338365    0.65461027766527
C         3.26361414737771    2.81976407107604   -0.29185969117137
C         4.16423219037890    3.79323045976251    0.11362751813803
C         4.27024749362932    4.12797130157433    1.44601724000042
H        -0.30218258071292    6.91440740788081    5.34166261145835
H        -0.47573906926103    5.88882458103417    7.90365640911771
H         3.47815758225452    7.72012573832573    1.98845002718496
H         0.49932913685226    4.96194730760556    0.69449720478157
H         2.52101786344063    7.90986928795703    5.27580491858172
H         3.97321224192486    8.00626742682146    4.27421719403963
H         3.69637955802455    6.60077090918910    5.31187383509334
H         3.21807843625515    7.29266040430788   -0.34116111621540
H         1.47653897290120    7.35861969940249   -0.62104540646374
H         2.34326832467928    5.84420003130900   -0.86145811081651
H        -0.71297313580383    3.65935774311785    2.23424622758898
H        -1.08799120144359    4.56061576054609    3.70887368192993
H         0.11874916827639    3.27797360798027    3.74682233898052
H         2.68081287194682    4.15168190119936   11.39259633365702
H        -0.26589656932662    1.36804852180524   10.07922267308298
H         3.60390823324081    5.40533563805273    8.33505175571065
H         3.41142751354551    5.89154716762499   10.02319555680283
H         2.25992253869577    6.44301281036267    8.79854484993228
H         0.23956465507818    2.03137720954262   12.66028028708982
H         1.92841584136881    2.49942696820567   12.89641202438645
H         1.52896040512107    0.96124022933197   12.12340630169685
H        -0.09292843885217    1.97624324898950    6.70167390652534
H        -1.27154750938912    3.15526000283489    7.26370278791958
H        -1.24156271812499    1.53242980806551    7.96714998273097
H         6.85561673712310    2.59118310294187    5.97272516412068
H         7.50092466850167    0.04704978090676    4.40908516621442
H         7.47496857187670    0.14703224034208    6.17378065399252
H         9.21930445777311    1.91225499080075    6.09753081953032
H         9.77434628961330    0.43994155643799    5.29524161564650
H        10.31877654973989    2.46724637088982    3.95521832556903
H         9.20791474591497    1.40316566142900    3.08938381536600
H         8.45796212167685    3.74928194477906    2.90296271794561
H         8.42727841512552    3.89988096328879    4.66226544114649
H         6.15219639492503    3.47779344321284    3.81501681060037
H         6.70720179667887    2.01867334378442    2.99141196921944
H         5.28712764426850   -0.19173410775055    7.25777805787598
H         5.42942531080060    2.70905847972398    8.19622266195239
H         6.81352995915417    1.65301887737191    7.88850424456277
H         6.05232247635360    0.07326550022750    9.61311280714398
H         6.28665842918284    1.68956938511393   10.28488039383381
H         3.86538613226353    2.13146254643216   10.14044301958034
H         4.16172310996525    0.67637100650552   11.09628002336034
H         2.29495126954582    0.35812443227832    9.46402566308764
H         3.64131157249247   -0.74036624836624    9.13903187454357
H         2.82508301513702    0.25846478428526    7.04701682952968
H         3.08549151733789    1.90221464765014    7.69659915328716
H         3.30595897679949   -0.09248264099386    4.57617527781334
H         5.95439142607335   -1.56598222431592    4.91750996829731
H         4.58999886693969   -1.64170220823872    6.04117063333215
H         4.53463842425759   -3.53957121135675    4.48553357670538
H         3.11896512710932   -2.50025551752472    4.29550499621372
H         5.58929676154745   -2.49342759846118    2.50759963307249
H         4.00433825983093   -3.14641751007443    2.08722245512268
H         2.99908079340916   -0.88764895595480    2.30499380765728
H         4.33225912747657   -0.85022436592245    1.14735718246125
H         4.46720575638034    1.07235313501720    2.70762790734085
H         5.84974226571430   -0.01893744967083    2.91285363315362
H         4.31492162686336    4.75354596032832    3.86550118477801
H         1.98505609275704    1.98077510140716    2.71765769400247
H         1.77513306196604    1.41955162722416    0.34431732060065
H         3.17534929982124    2.56345495481962   -1.33787993289013
H         4.78220147378224    4.29576054711230   -0.61697136001439
H         4.97119601753980    4.89221327278969    1.75077628557598

