61
CSD_code = GUBQUQ | q = 0 | S = 0 | Stoichiometry = C29H25Br2NNiP2S | MND = 4
Ni        2.77426708570631   -8.62076797404359   12.66453706710959
P         1.57145621911981   -7.21412425685222   11.58459727419099
P         0.82974940725651   -8.84454980377200   13.55559480224779
Br        4.59604207103630   -8.05777618101699   11.50838004300985
Br        3.67497893905045  -10.20765204892774   13.94551070974090
S        -0.96634169709855   -4.64338249386522   13.74121475079495
N         0.20943448903469   -7.59302640927639   12.55280813371126
C         1.76337677220998   -5.41697972373909   11.75948278135398
C         2.63490181609436   -4.97215489443953   12.74750096642775
H         3.22728166554496   -5.69298109212157   13.30327928577930
C         2.76230284138115   -3.61929960116145   13.00040248862010
H         3.44326271704008   -3.27449976333204   13.76383409816125
C         2.01932906306019   -2.71116632389315   12.26418078030814
H         2.11790554717660   -1.65339429979079   12.45698382905119
C         1.15624395102065   -3.15247077771397   11.27338776535328
H         0.58431295639497   -2.43982382557378   10.69785959402503
C         1.02366235544353   -4.50439700937847   11.01640041640871
H         0.35820450738259   -4.84914835524996   10.23642909878683
C         1.07456734548991   -7.46799285416136    9.86475846981289
C         0.06882112275832   -8.36720168365802    9.52659783298154
H        -0.48009001460398   -8.88547556363777   10.30284492898869
C        -0.22158759407358   -8.60236943256915    8.19539505731293
H        -1.01037175269865   -9.29192027836086    7.93254884877405
C         0.50540062516152   -7.96406024986642    7.20324462594977
H         0.27779485402613   -8.15377038653650    6.16504889128721
C         1.53456563179836   -7.09778678167234    7.53921161146431
H         2.11509645597905   -6.62001034829834    6.76472882225340
C         1.82674341627054   -6.85167725499076    8.86708784190162
H         2.64153553722120   -6.19554176028514    9.14237525722947
C         0.40741181756787   -8.37767495717362   15.25280813234801
C         0.65632087131530   -7.06760458363017   15.65144235448408
H         1.04665650200177   -6.35445981708347   14.93573888869788
C         0.39921713944080   -6.68024431428521   16.95123241992864
H         0.57750277544723   -5.65925219377881   17.25448265896935
C        -0.07717581353933   -7.60713126798350   17.86539611552590
H        -0.27950384761595   -7.30463144444318   18.88193433395606
C        -0.27137319635717   -8.92480716699897   17.48485031036397
H        -0.61368045117918   -9.65156100576121   18.20644115534344
C        -0.01963240641290   -9.31863003728169   16.18288890988037
H        -0.14618203942919  -10.35108033342248   15.88882392139633
C        -0.20993940767426  -10.27308869630645   13.13518134595110
C        -1.54033417016098  -10.37263625324806   13.52991401812701
H        -1.95986322051133   -9.63739876895957   14.20248801499431
C        -2.31099666775828  -11.42650894948181   13.07369810597872
H        -3.34409219820007  -11.50694716618034   13.37944723311917
C        -1.76094190203292  -12.37937424844038   12.22965986841053
H        -2.36827604977972  -13.20169380083627   11.88205679819709
C        -0.43614411279342  -12.28299071572435   11.83637317249627
H        -0.00572100466955  -13.02800678713737   11.18467550090688
C         0.33727876458228  -11.22771956588832   12.28416212341014
H         1.37810194118583  -11.14690378121536   11.98588748366212
C        -1.15634792893312   -7.10512004205512   12.40790372959617
H        -1.84443672126157   -7.95625997623486   12.32227601421041
H        -1.19596241094732   -6.53123479106092   11.47523478012742
C        -1.58132902615928   -6.25434193120245   13.55549217394822
C        -2.41099069412240   -6.58188924333513   14.58368984747276
H        -2.91310387948101   -7.52968590383051   14.66390217343133
C        -2.55802868388778   -5.54512719304787   15.53128513487393
H        -3.17175702288122   -5.62398492524828   16.41006445094533
C        -1.83680903711975   -4.44343651803480   15.20932279286378
H        -1.75991425282087   -3.51547219250732   15.73971996334583

