74
CSD_code = GUBQID | q = 0 | S = 0 | Stoichiometry = C31H39ClN2Ru | MND = 7
Ru       -1.65721504334244    8.53249977620272   16.13534850233286
Cl       -3.99097685106144    8.11854924813655   16.09601379113562
N        -2.91053891755464   11.25398372563235   15.23313154389487
C        -0.52058617882635    6.78016455902212   16.89974650182469
N        -1.29297353887473   10.55694064428129   13.99910454570880
C         0.40919952541056    7.84755898878453   16.59358196804076
C         0.11622762714024    8.94749891175762   17.44725790480172
C        -1.03652398202700    8.59437240329369   18.23908405631536
C        -1.38020202583025    7.22518314737366   17.91900935191651
C        -0.43001671972875    5.38730809488742   16.34958509752031
C         1.66880241659819    7.69499603581585   15.79778320824967
C         1.03282515471657   10.12044104155563   17.64195592642340
C        -1.58926544104288    9.31571232393077   19.43129027112645
C        -2.40869415500591    6.43245629787825   18.66269985840097
C        -1.99766736818037   10.25784103859621   15.13281474521240
C        -2.78339084284334   12.14457134077199   14.19552283145177
C        -1.76884291469714   11.71082627259496   13.42008416514629
C        -3.89326156518145   11.40392188318559   16.24891866352037
C        -3.50500090294310   11.90761301064643   17.48871864683211
C        -4.46487218019349   12.05815577260508   18.47596963027160
C        -5.79441896521878   11.73784805592123   18.24046650609665
C        -6.15917706012539   11.28305244604665   16.98194056379304
C        -5.22814050597796   11.11338479908896   15.96860760256219
C        -5.63899301725697   10.60103315904393   14.62458645683859
C        -6.81499217217756   11.87008860438118   19.33005582251978
C        -2.07800251484791   12.30385322000867   17.71288551216929
C        -0.23424611601372    9.79152603017454   13.45933998919622
C         1.01490419006353   10.37947334970862   13.25268928112934
C         2.01660392319655    9.62375593613709   12.65951180870329
C         1.80806638372611    8.30562308092357   12.28043220329394
C         0.56889836563155    7.73325611431842   12.52685839513121
C        -0.46053649674071    8.45165623997959   13.11912650785925
C        -1.78307298233524    7.80597998518377   13.38349394023669
C         2.91482821871659    7.51673336791013   11.65061575969769
C         1.30084042184134   11.79231754835726   13.67027204392860
H         0.24031357126086    4.78564077690666   16.96811449937368
H        -0.03630252983414    5.39090884905429   15.33378644332632
H        -1.40627366688151    4.90533662444348   16.33690717689173
H         1.54018150537008    6.99715720759117   14.97298294463081
H         2.46375115362194    7.31268717016621   16.44334206316458
H         1.99248474506729    8.64951795477624   15.38753225993898
H         1.96324563921405    9.77534945713758   18.09831706949808
H         0.59364142691085   10.86982138333612   18.29527897556212
H         1.28198334549290   10.59182408856587   16.69223621339772
H        -1.49645422881472    8.68442171592187   20.31675017644902
H        -2.64667625199100    9.54058539159604   19.28929285051468
H        -1.05875648072047   10.24600602022217   19.61591474262787
H        -3.37562475560914    6.93463168295844   18.63106077727672
H        -2.11292115880524    6.32793000576181   19.70860185480170
H        -2.52545818380499    5.44009601887904   18.23397846302151
H        -3.41269460090911   13.00670240122614   14.10825751950438
H        -1.36631887954612   12.10269334433024   12.50933879546526
H        -4.17053193909497   12.43457053035608   19.44580308472093
H        -7.19405060609053   11.04294533499162   16.78542697541212
H        -5.23558796239286    9.59534113928789   14.50151856102007
H        -5.25478237337885   11.22777460567744   13.82089170799525
H        -6.72151611330580   10.55200222297946   14.54808488337908
H        -7.79844409620565   12.08250190851430   18.91801264342254
H        -6.54319395122611   12.66083681382715   20.02552996863185
H        -6.87931814996031   10.93621549656892   19.88851220891576
H        -1.82439549369332   13.16409218537927   17.09138621124982
H        -1.42280420015074   11.48049957853256   17.43405364348542
H        -1.90927362446789   12.56871178877602   18.75302341670725
H         2.98463144848079   10.07519321711167   12.49462155270399
H         0.39523533290253    6.70317068508493   12.24828661119369
H        -1.91172271423391    7.60412430499948   14.48534618017707
H        -1.85351322575688    6.84500180009142   12.87810418125031
H        -2.61528430806772    8.43642660035032   13.05915849824627
H         2.54069074832134    6.58804034184464   11.22797910966276
H         3.67224914310974    7.27438817318614   12.39616745394178
H         3.39637826665519    8.09265974172220   10.86292179511483
H         2.34717844996798   11.89324816059016   13.95097013980540
H         0.68066139689870   12.08815217531518   14.51371817697550
H         1.11098555259025   12.48391664838271   12.84918656718600

