31
CSD_code = GUCJOF | q = 0 | S = 0 | Stoichiometry = C15H8BrMnN2O3S | MND = 6
Br        5.05740331335627    5.37263703031077    0.65776432443856
Mn        2.77494917619380    4.98465856415867    1.50569487422872
S         3.67668941361979    8.91197553232063    3.49085180045972
N         3.66028921146203    4.92382673304711    3.35780584815283
C         2.32292758009898    8.16199220959430    1.41541135968996
N         2.75489946137964    7.00365746665731    1.99979525632879
O         0.05657086927690    4.55882909824155    2.50198321548268
C         4.09953872326733    3.85648879156484    4.02154510842468
H         3.83732793112333    2.88828821170035    3.61440397346798
C         2.73899294374472    9.33026627053134    2.08729861680021
O         3.07039742239373    2.12857537545716    0.91644450954165
C         4.73865296671823    6.31203501071110    5.00644132908292
H         4.96581981989089    7.31053407694686    5.34636371019182
C         1.53334461361170    8.28108226206133    0.27096701785579
H         1.19480840519480    7.39307354401511   -0.23950230204710
C         1.19910213052950    9.53851420729452   -0.17922504801785
H         0.59267742553140    9.63985001984960   -1.06569593972071
C         2.23175798641003    5.11638078082057   -0.19355389422498
O         1.94985961858614    5.09494424946627   -1.30661340830175
C         1.63076089840158   10.68466703102797    0.48874191123105
H         1.35707569792076   11.65696791001878    0.10964560890128
C         3.45661869766617    7.23666106045432    3.07964055480091
C         1.12722471796120    4.73975967590653    2.12278926600138
C         3.97537567769213    6.13901065342144    3.85238476154668
C         2.96019272563758    3.24072158291477    1.18017518120976
C         2.40068075672978   10.59326371613598    1.63015759542854
H         2.73459369561746   11.47284354364818    2.15709208700720
C         4.86317029611912    3.94328544504220    5.17176630433378
H         5.19706662210457    3.04175558564356    5.65907282867761
C         5.19519713224339    5.19507492694800    5.67519908259329
H         5.79713406951706    5.29297943408900    6.56485446643510

