38
CSD_code = GUCMOG | q = 1 | S = 0 | Stoichiometry = C6H21CoN5O4S(1+) | MND = 6
Co        1.71596419446998    2.98234376006806    4.22460673032984
N         2.19852451926492    1.72729763869189    2.82863908863358
N         2.37140020146550    4.37717742189387    3.06423370078203
N        -0.13704348021456    3.01042051331780    3.39129655324114
N         1.42571510042584    1.41838626450104    5.40002560377083
N         1.24582707390579    4.25119438179767    5.63731501572186
O         3.45339097193505    2.82141564478541    4.83657168025138
S         4.08273546888194    3.92300108681009    5.75961290102516
O         3.32462220845911    3.79662940549081    7.01226925099779
O         5.46507420488453    3.58234616531367    5.81965971947392
O         3.75381069693178    5.17749632112354    5.05859527018237
C         3.31494692880232    2.36161391231024    2.09182161772915
C         2.96889230206663    3.82800394181783    1.83554963924250
C         1.05503251225016    1.47307323160647    1.92358153380058
C        -0.28219437476714    1.77251946129914    2.60515272135965
C         2.64556357421772    0.49961474093860    3.51591947613655
C         1.68713490782461    0.16934464256355    4.65803193079105
H         4.18841241851453    2.33524724671924    2.74255689107905
H         3.53012146468856    1.82447936181803    1.16355208170663
H         3.87717686659423    4.37215734743569    1.56278829305336
H         2.25891029683980    3.92762682097937    1.00679715181456
H         1.06873381011052    0.43898159265382    1.56874457313660
H         1.14938111690137    2.12229380655409    1.05298738129154
H        -0.56940514955459    0.96790229694044    3.28024413610685
H        -1.06564053006625    1.86318887411175    1.84539390873013
H         3.62206783692593    0.71346276427965    3.95105855634492
H         2.73498095097260   -0.33610100107049    2.81559274833744
H         2.13972752678249   -0.59013311796138    5.30279411734087
H         0.74649756413443   -0.23609203454400    4.27964169537874
H         1.82285087176138    5.20359701229898    2.83023387308572
H         3.12629483714711    4.75591249818397    3.74765697671582
H        -0.21550168731643    3.80743338710364    2.75965574392351
H        -0.92330579001242    3.09296468567729    4.03329470063246
H         0.62980995903625    1.29552771323656    6.02502384452923
H         2.24079075516599    1.60557808628344    5.99797215094333
H         0.34802175452972    4.24424365318732    6.11713944143975
H         1.46183258535281    5.21855519654114    5.39663681359718
H         2.02064553068762    4.07299527524207    6.38245248734319

