40
CSD_code = GUCTON | q = 0 | S = 0 | Stoichiometry = C11H20N2NiO6 | MND = 6
Ni       -0.02514077955177    1.81847094780374   10.67279592427460
C        -1.34886169253595    4.70008351257186   10.46605832960160
H        -1.84946075994765    5.65773334620273   10.31468979239032
H        -0.72572752885753    4.76423547998824   11.36158887972077
C        -2.39975780849811    3.61204094852400   10.67646284326056
H        -3.11327134877324    3.94638147626193   11.43889106085249
H        -2.95174971309058    3.43673402873737    9.74440767229620
N        -1.78118711828341    2.37136409254418   11.08576034602240
C        -2.44670477873808    1.49937141603023   11.74008407117044
C        -1.63082791629029    0.25838309763636   12.14694559784349
O        -0.43083937122061    0.30389332906948   11.73341478816506
O        -2.15138689391562   -0.61897638281443   12.80737946043587
C        -3.87228906555943    1.58111784338648   12.14581682495551
H        -4.03975494791343    2.42162871244416   12.82039089993180
H        -4.12555259029454    0.65547278478619   12.66042396614737
H        -4.51652226489183    1.70874275999951   11.27649317758055
C        -0.44541475360297    4.41079485419294    9.27005792798929
H        -1.05412409039877    4.21947745611446    8.37689789819982
H         0.18299288062309    5.28780460936324    9.07516921056572
N         0.38564085352722    3.25606294573363    9.52463297881460
C         1.47550275679146    3.08739061348004    8.88020561623824
C         2.27788704275038    1.84486222264829    9.31173626912749
O         1.72021178522294    1.20793439690318   10.25803580047472
O         3.32908673354141    1.58268886127240    8.76031835402713
C         2.02667274728622    3.96161638528560    7.81450366071273
H         1.30903664014191    4.09754907048859    7.00594432935392
H         2.93233488899430    3.49266634880270    7.43280987960646
H         2.27823016946988    4.94445154502483    8.21498635223658
C        -0.19070890547894    0.23435081146828    7.58647272907948
H        -0.53633521438250   -0.68013692935827    7.09469112730203
H         0.90008450615505    0.21464445464568    7.65544574493863
H        -0.49430891053538    1.09277437138056    6.98765167422249
O        -0.79975822894747    0.37537457146920    8.85653092229814
H        -0.54090099765203   -0.38698304416894    9.39663312009684
C         0.50178174511987    2.59534563411029   13.94251417683552
H         1.26567865960044    2.79871086244074   14.69940894394498
H         0.13397341418000    1.57407722166857   14.06476316677343
H        -0.32543735894726    3.29137539532483   14.07922942591508
O         1.02150556660518    2.81482538399927   12.64207839748030
H         1.75090264829565    2.19056456454323   12.50727865911382

