99
CSD_code = GUDBUC | q = 0 | S = 0 | Stoichiometry = C34H62P2Ru | MND = 8
Ru       -6.69201863680948    2.10395321669211    4.89263306739043
P        -5.01430744795322    3.57374090788278    4.19838253212614
P        -5.00288672676828    0.50119934193958    5.00410965825744
C        -6.42545515342476    2.73129771109989    7.02289922120214
H        -6.31179370964728    2.06573320024654    7.87644678062377
H        -5.73299431838907    3.56956663151813    7.05679947003147
C        -7.74937993715186    2.98789882634975    6.60160273423049
C        -7.94795588471655    3.86196157655321    5.50766923200169
H        -7.32676757749836    4.74858738303785    5.44050074307512
H        -8.97750009059440    4.06886374952549    5.22824604365430
C        -8.91114950331569    2.36572058294581    7.33313231252003
H        -8.67228069014747    1.37401678105056    7.71567609682874
H        -9.80632269115556    2.31011435233508    6.71600406031487
H        -9.13921709792443    3.00663675105478    8.18962355076507
C        -7.30312434238504    1.47757358047575    2.82330656941176
H        -7.43563062274500    2.13098505373698    1.96398900454774
H        -6.79303534758030    0.55320484242888    2.56045901804983
C        -8.39717042801387    1.38729585126161    3.71174393079689
C        -8.27394631006423    0.51573288791208    4.82010592949561
H        -7.79695578987160   -0.44544308561733    4.65225716300832
H        -9.14109189893981    0.42281148184467    5.46863124018907
C        -9.66699585369479    2.15298746546312    3.44441154903165
H       -10.25549252872046    2.30586102948417    4.34705417736726
H       -10.26896027154059    1.55469965637852    2.75497575153482
H        -9.47656102764432    3.11429868282524    2.96914977556237
C        -3.50779857704637    2.52023816324279    3.90873474768560
H        -3.64601698554567    2.00583985325079    2.95241918878579
H        -2.59620363855776    3.12233848197538    3.85153292998942
C        -3.44083194592884    1.49883277289519    5.03672969248395
H        -3.44753818125962    2.00871053830919    6.00414269913254
H        -2.54254334885205    0.88145536706453    4.97912202553553
C        -4.12871888887132    5.05040109670959    4.99929649739867
H        -3.48005126456110    5.42916015023658    4.19921262858437
C        -5.08391501806947    6.16892971048977    5.41234643101274
H        -5.76333413541030    6.41046169549830    4.59356980494524
H        -5.68323048377839    5.84277644777266    6.26507810758573
C        -4.30488957930970    7.41865976751861    5.81589397120947
H        -3.71545668661704    7.77372311217080    4.96645507167732
H        -5.00024249379742    8.21337334989207    6.09529505068966
C        -3.37585031655849    7.10304092658962    6.98264220324210
H        -3.97208194802741    6.81235166139559    7.85084463967655
H        -2.79800323715961    7.98889998527632    7.25508572326174
C        -2.43674946437196    5.96199622013820    6.60831658499094
H        -1.79281748069958    5.71571583542929    7.45595603195057
H        -1.79358413386303    6.28025932689436    5.78345480129148
C        -3.22081148952744    4.71855558707621    6.18546029735545
H        -2.50628690885961    3.93821487833998    5.92346105927171
H        -3.81223705594513    4.36667903567255    7.03276079261653
C        -5.25924115675126    4.21048739530938    2.45243222846080
H        -5.35259684810550    3.26016883091424    1.90540538422280
C        -6.58305714267957    4.95386530159026    2.28660695119709
H        -7.37372328503151    4.40022439814944    2.79714498543814
H        -6.51975070753498    5.94491431717813    2.74033300860636
C        -6.90638448167766    5.11738225373529    0.80420736564626
H        -7.01930131075015    4.13286483054359    0.34362869720264
H        -7.85127735735808    5.65245791974529    0.68403031074474
C        -5.78598539906524    5.87919116461450    0.10121395275602
H        -5.72756029875703    6.89122229359168    0.50968773609641
H        -6.00237583826927    5.96319031983072   -0.96612224505034
C        -4.44663388280656    5.17638410771317    0.30544253133274
H        -3.65038451689136    5.75018062434438   -0.17502810920472
H        -4.47829757816196    4.19075618205037   -0.16508086732645
C        -4.14194543981596    5.01841235808723    1.79576576103001
H        -4.08228940093288    6.01374499305260    2.24073586428218
H        -3.17650933184835    4.52296354766197    1.92029970819034
C        -4.78748145045343   -0.37715462310964    6.64359582032223
H        -4.61667595701002    0.47974582699617    7.31274568947749
C        -3.61310119518295   -1.33703151915330    6.81571731701599
H        -2.68096915078540   -0.86710531448184    6.49688465498040
H        -3.76939416480273   -2.23672356564330    6.21904314971908
C        -3.49789649246546   -1.74296885564044    8.28526385608301
H        -2.65903568761206   -2.43170450980320    8.41245314725959
H        -3.29639836045453   -0.85624476434542    8.89124755318424
C        -4.78809755534290   -2.40113892373540    8.76501799209175
H        -4.95770631685375   -3.32023518405054    8.19854981392674
H        -4.69775612977503   -2.67171708020312    9.81942052771122
C        -5.97239884302009   -1.45985230069047    8.56559852539122
H        -5.83493407677914   -0.57071949081830    9.18608528760029
H        -6.89517499904075   -1.94993403929052    8.88431074173070
C        -6.08249557775452   -1.04487377816419    7.10121327261120
H        -6.90775851659243   -0.34207447619109    6.96873576405853
H        -6.29088901885810   -1.92698231006307    6.49331995307228
C        -4.58393743107188   -0.73660850615407    3.62820387130735
H        -4.88363445946976   -0.18349970822824    2.72481975649303
C        -3.12709464424298   -1.15327021722866    3.41289027500167
H        -2.75880471256616   -1.72582167984903    4.26342044555600
H        -2.48920610534155   -0.27834599830778    3.28431929722806
C        -3.01064223711609   -2.00957014450973    2.15012516763077
H        -3.31156511673029   -1.41704764212272    1.28226926480471
H        -1.96806148232134   -2.30374046802036    2.00693438391620
C        -3.89362159517575   -3.24854742057820    2.24108947375196
H        -3.56234020993625   -3.87121178373653    3.07582233318769
H        -3.80375190300440   -3.83971302896033    1.32720862342206
C        -5.34456000534004   -2.83606997095145    2.45974824997584
H        -5.97756377271932   -3.72172530027894    2.55156913055114
H        -5.69420251542569   -2.26431611332693    1.59649774208170
C        -5.46564775916783   -1.98304144358130    3.71971376713727
H        -5.16579426901957   -2.58369109105573    4.58004239311459
H        -6.50810716281789   -1.69188783509627    3.86019890259192

