57
CSD_code = GUDDAK | q = 1 | S = 0 | Stoichiometry = C24H29ClN2Rh(1+) | MND = 8
Rh       -1.93775224317824    5.07197638502119    3.23302682638989
Cl        0.26112772730170    5.60680477130308    2.76954406670249
C        -3.98001650712904    5.67023146547054    2.60052457494811
C        -3.94519361438028    5.60423124109695    4.02630403830104
C        -2.97628765650206    6.56898667459129    4.49294943191015
C        -2.43376994244380    7.23279884344862    3.35486665435692
C        -3.00197328193480    6.63390193454210    2.17388633062713
C        -4.97827833705400    4.96840091488311    1.74074033282982
H        -5.13357125443608    3.94070776139927    2.06296684211425
H        -4.68586600943774    4.96637419208817    0.69421651678287
H        -5.93339430185323    5.48980164543241    1.82169587572863
C        -4.92698127101201    4.86787538103710    4.87450618564954
H        -5.82856018047498    5.47483891769572    4.97385753138736
H        -4.53653405033133    4.67632100983170    5.86998898799256
H        -5.21023430973741    3.91966639631647    4.42401295029595
C        -2.81107295587791    7.01677543995210    5.90885779369584
H        -1.79012794322331    7.33345028106703    6.11131658124241
H        -3.08725186669257    6.23337355637135    6.60943438608223
H        -3.46507141335192    7.87295298730391    6.08196808532391
C        -1.54319143525301    8.42478983825053    3.35372364179004
H        -2.13786977775490    9.30439309089806    3.10209165869099
H        -0.75580903345946    8.32784035180331    2.60918027950483
H        -1.08499304879234    8.58281572034643    4.32553495362920
C        -2.80990425910152    7.18379279927338    0.79561265346991
H        -3.21522314306400    8.19502236317671    0.75578289407933
H        -3.32152699428649    6.58731242624404    0.04509622447169
H        -1.75259180381639    7.24159304206976    0.54250408311969
N        -1.59248849022286    3.51468236758569    1.97027652032937
N        -1.10234604268080    3.70763378109809    4.50048419169001
C        -1.79361763230362    3.51414646844741    0.65504153875811
H        -2.29943199207417    4.37238257213195    0.23446615258257
C        -1.37212936287306    2.47819428418433   -0.15884406249796
H        -1.56021462328104    2.51907147483200   -1.21931212488945
C        -0.70386322806262    1.39752322043703    0.40645105704787
H        -0.36349194475256    0.57943216768340   -0.20822849861055
C        -0.47012163345167    1.40340857633411    1.76728101829464
H         0.06508268104816    0.60008747272939    2.24784743598761
C        -0.92258177747963    2.48331962414864    2.52670110774443
C        -0.66780035631152    2.64089904613065    3.93312848601457
H        -0.08319812206699    1.89117398974212    4.45363347481588
C        -0.83366937219317    3.97537138742131    5.89598866508724
H        -0.71296428911514    5.06371331378766    5.97453388903559
C         0.44009152273778    3.31527945930905    6.43677812467688
H         0.31024604269755    2.24508892734997    6.58020615719269
H         0.67350898719903    3.75005356661183    7.40461567818717
H         1.27591390917332    3.49995865103216    5.76531095983673
C        -2.01823478682273    3.55785097505485    6.75547644286424
C        -2.83826895009379    2.49396615655725    6.40705494468382
H        -2.67573395490377    1.95767901884557    5.48239863263586
C        -3.87526277886559    2.10915038677530    7.24163703961691
H        -4.50801254908434    1.28137196314031    6.96048396364127
C        -4.09679313003223    2.77816302094653    8.43251581545278
H        -4.90350724075734    2.47617852970445    9.08166122024864
C        -3.27314636702504    3.83272390941244    8.79114823502334
H        -3.43270245749673    4.35249443621948    9.72310768490761
C        -2.23984763030687    4.22134270437701    7.95707371063761
H        -1.59269552331509    5.03602911707982    8.24789215788828

