45
CSD_code = GUDHIW | q = 0 | S = 0 | Stoichiometry = C24H16CrO4 | MND = 9
Cr       12.08693173341467    4.76573564084897    1.91684641303063
O        15.01362317418242    4.30392209977950    2.20039032447182
O        12.95328504200989    7.53422690696453    2.59331938594950
O        12.40395918848757    4.50773578879432    4.86487729722115
O         8.93735287954050    7.10923723609990    1.44309914742589
C        13.88163730193670    4.46531715709567    2.04918430764838
C        12.58351327450751    6.48768167954210    2.29135330998270
C        12.23980417878549    4.58866676276687    3.72518159336846
C         9.91946441210773    4.97846337064463    1.30607354148930
C        10.73516063526333    5.38776961516011    0.22094202895061
H        10.53520509410130    6.36013634619831   -0.21677474716625
C        11.67459833978633    4.52746794657284   -0.33648851496269
H        12.23619980517050    4.82019721928120   -1.21503347964284
C        11.86238751573448    3.25045085312167    0.22688060589075
H        12.56073707198952    2.56084001617982   -0.23308083482822
C        11.05280953101570    2.81585778596577    1.28153157243417
H        11.13549089906898    1.79967154429680    1.64824476653409
C        10.11904990232167    3.69327920103916    1.85144019076802
H         9.47927033180289    3.33922011075355    2.65216162457899
C         8.95218295480377    5.95882276084723    1.85219785123356
C         8.00832364853460    5.46151008091426    2.86871298707001
H         7.52964551850063    4.51444687669142    2.65618192208704
C         7.68041043045542    6.14908798383729    3.97688322119386
C         8.40674992321075    7.36971173028026    4.36082917367390
C         7.70229695028122    8.51053536271318    4.73723433544253
H         6.62165121028622    8.49316005163217    4.73259748811242
C         8.37911223808287    9.66308193725630    5.08826566570410
H         7.82382508705005   10.54728843294585    5.36570889869941
C         9.76423350603360    9.68527735519583    5.08438439848295
H        10.29132323025166   10.58664961685712    5.35971836436946
C        10.47173680751865    8.54892820091221    4.72898280204375
H        11.55093677287249    8.55584595387175    4.72736217833248
C         9.79863130163078    7.39697293773740    4.36815660536170
H        10.35848415350758    6.50818144359212    4.10509883324626
C         6.62930367095977    5.68406902675163    4.89028926508088
C         5.47478100076095    5.07074641205369    4.40556374009268
H         5.34114458517496    4.95205555295738    3.34016702323850
C         4.48632641559572    4.64852263036738    5.27424373843224
H         3.59206293684505    4.18389822678720    4.88510942419666
C         4.63760473967525    4.82445044299880    6.64002994619497
H         3.86445311498172    4.49328696538936    7.31730107958597
C         5.78129713088814    5.43163489819105    7.13255582927838
H         5.90292964873757    5.57179854713953    8.19646155100505
C         6.76764755705334    5.86373735964781    6.26643334019159
H         7.66052515507746    6.33372193132229    6.65198180449582

