73
CSD_code = GUDLUM | q = 0 | S = 0 | Stoichiometry = C14H40B16N2Ru | MND = 10
N        -1.79991755228727   19.93008839592336    1.31479254287198
H        -2.43952186610373   19.22358083562446    0.97731656309399
C         2.03537342516491   19.44400941066739    2.41584777516343
H         2.76057055658887   20.12353916533894    2.85784088121980
Ru        3.02637535022816   17.47371523872437    2.04413253421618
B         2.13974790194608   19.00435337423759    0.79735897791362
H         2.95091634769678   19.39173971798510    0.03058950350115
B         0.93346976786193   20.20867756361642    1.36815632430338
H         0.96770224319309   21.35935310808035    1.15789090256716
B         0.43768637251732   19.64418348626407    2.97852263016915
H         0.20475751117218   20.45333031499636    3.79444319263795
B         1.39723351311110   18.17440123104982    3.34371603508805
H         1.66824360328101   18.06790464761671    4.48734456801608
C         1.26499715448907   17.57823431403825    0.64923516679208
H         1.42530173130918   16.91157471055775   -0.19584578229495
B         0.44480066900350   19.00715189987006    0.23429289154059
H         0.05958356183480   19.22501016575332   -0.85073111232807
C        -0.54069924723241   19.34661696909456    1.62350550749995
B        -0.32295217000724   18.08449753233175    2.84708955991858
H        -1.24083828661393   17.80506293061843    3.52595663512121
B         0.89303931283336   16.94649198918958    2.16886726222838
H         0.75236310267778   15.78081414944693    2.31307142377426
B        -0.35635031212866   17.71904707100481    1.15073508239516
H        -1.23036947208933   17.15112315258017    0.60574435149951
C        -2.53750215547731   20.92058983595319    2.09362610315226
C        -3.81827920964851   21.18897268914357    1.28994191296423
H        -3.56476706440299   21.49607763547788    0.27847420029391
H        -4.40253997261931   21.97671165755962    1.75782404425576
H        -4.43492282501734   20.29361627973438    1.23608025368538
C        -2.93376304959818   20.42882303742412    3.49560332425980
H        -3.48508244366127   19.49309766769598    3.42454008644608
H        -3.56888611615247   21.16629796825433    3.98031781083264
H        -2.05926547813782   20.26438751508124    4.11594481580987
C        -1.74891414018550   22.22891855388243    2.18867876746772
H        -0.87359207505215   22.12000927004381    2.81796632253857
H        -2.38012033629683   23.00698171324241    2.61080221258866
H        -1.42904052756233   22.53734203627018    1.19711587968533
N         7.87203404717048   14.95842033977685    2.27042111628526
H         8.54070033314114   15.57113485759661    1.82365106379803
C         3.97097001192942   15.65648649757063    2.94210792016802
H         3.20926032645353   15.09419353349387    3.47748083100091
B         3.98932249781859   15.70073346377607    1.26239352921302
H         3.23289911295829   15.13648520139639    0.55147747607339
B         5.14018597387544   14.67608657872088    2.18818514301087
H         5.11137753743400   13.50803302628497    2.25345086571155
B         5.52127985175149   15.60914838876904    3.65176678905835
H         5.68680160892748   15.01739183780082    4.65034385373217
B         4.54991884596202   17.11486944908960    3.58837791240280
H         4.19681270259634   17.48581762054291    4.65158711223386
C         4.88470105716695   17.05963789008384    0.84643846028221
H         4.79273649988670   17.50663800503277   -0.14151136014251
B         5.72071486096754   15.58054999201235    0.84159165300026
H         6.18256928362097   15.11631555951058   -0.13014331480552
C         6.59871929603158   15.58706260418588    2.33986883711572
B         6.30261654541290   17.10054693134459    3.21212626836362
H         7.17074329636569   17.54028573618496    3.87126526374954
B         5.14951567671724   18.03535221462009    2.19726585528935
H         5.29007548736148   19.20330020746283    2.07231463999656
B         6.46354729714137   17.05563634130062    1.48458683253895
H         7.38017287112477   17.48661102677756    0.88662042671667
C         8.54222947715210   14.18614888821761    3.31259500409843
C         9.87567334212789   13.74676671677997    2.69033881711440
H         9.69349135970644   13.20501796218726    1.76579975284267
H        10.41871859046882   13.09911469803281    3.37313522043475
H        10.50121141685006   14.60943403100491    2.46895012096367
C         7.73765863774409   12.93029706720320    3.65620695470647
H         6.81921383209934   13.17690771854584    4.17557494548550
H         8.32940924602710   12.28010004560438    4.29582702530198
H         7.48921103452272   12.39300276849989    2.74500136815037
C         8.83954572849076   14.99855786258513    4.58379208022860
H         9.40111207460015   15.89672383814478    4.33386489663999
H         9.43275208661518   14.40271488270726    5.27316922563374
H         7.92366032717529   15.29564898271135    5.08328826273128

