59
CSD_code = GUDPIE | q = 0 | S = 0 | Stoichiometry = C27H23Cl2F5PRh | MND = 8
Rh       -3.60964810201641    3.65006056064940    4.00062714761651
Cl       -3.36332918374668    4.34075677970516    1.77968896195484
Cl       -1.54319503269527    4.36962659857542    4.85190683135597
C        -5.37438229573463    2.61578109369294    4.98743562237990
H        -5.55815505756995    1.55801919720078    5.08451303540798
C        -5.79542122641777    3.43110251745347    3.90542087089891
C        -5.48591732108984    4.80838058474318    4.24233302896191
C        -4.80181097367347    4.80685322055557    5.47588132534954
C        -4.68521652116120    3.43119169381698    5.92183771921571
C        -6.66134459335838    3.00980990180198    2.76466304650218
H        -6.64654606397080    1.92826791682089    2.65084831738471
H        -6.33034846814717    3.47208713544918    1.83641378827577
H        -7.68774460857324    3.33002989390050    2.95251212739821
C        -5.95537642190424    5.98312402712736    3.44765677186065
H        -7.04473420827939    6.03234884396360    3.48423167683885
H        -5.65391144470794    5.88599236294651    2.40508573001765
H        -5.54849317232361    6.91231806403304    3.83772186591060
C        -4.36992839430661    5.98181327025056    6.29143776952900
H        -3.34441970431300    5.85571805235244    6.63641149630525
H        -5.01474851845504    6.07044208900032    7.16753869670806
H        -4.42803629385290    6.90384680417089    5.71895506297656
C        -4.18023739403597    3.02469931396310    7.26766527765207
H        -3.15572311679283    3.36363661172223    7.41919593755831
H        -4.79940485820067    3.48258700760978    8.04059632197395
H        -4.22110415131184    1.94530874490960    7.38646504464700
P        -2.14121790435756    2.09906317581233    3.25455484058793
C        -2.94496733514199    0.62309439209118    2.53929538297303
C        -3.96981982361670    0.86463376311373    1.63002923379739
H        -4.23053243509839    1.88695134725125    1.39318395358709
C        -4.63167254044692   -0.19017011014056    1.02890206639645
H        -5.42497733215714    0.00448483627548    0.32242291914439
C        -4.27720086686217   -1.49424293509063    1.33380980499726
H        -4.79607950655115   -2.32019803092294    0.87065766741959
C        -3.25126571667921   -1.73934181440771    2.23167699540728
H        -2.96734928391349   -2.75501143628322    2.46507998469688
C        -2.58233196049988   -0.68768599392994    2.83239966440938
H        -1.77532104807955   -0.89172926060925    3.52352322196627
C        -0.83841187039790    2.45111808185601    2.03095001555394
C        -0.31285506494819    3.72647937798496    1.85876754741320
H        -0.68093905639857    4.54992809315464    2.44947018090959
C         0.68791770190470    3.94161870801770    0.92991128582925
H         1.08961438913996    4.93537106253834    0.80222716738596
C         1.17371500292065    2.89222100394198    0.16887187592819
H         1.95509068174882    3.06395652143237   -0.55648713653366
C         0.65552461872116    1.62011190253618    0.34053615987985
H         1.03076730086383    0.79593144820552   -0.24835290033274
C        -0.34761379782893    1.39635645011601    1.26517891207764
H        -0.74731254947834    0.39969775256464    1.38663478200922
C        -1.19363449710810    1.36477511459680    4.65835089569608
C         0.16604777744441    1.51768603156135    4.91068290517230
F         0.97446399666919    2.08042029917485    4.01665689080830
C         0.73791014821380    1.07182739122725    6.10075108360702
F         2.04788731927038    1.22106567293599    6.30693074440986
C        -0.04758395729504    0.46926576861043    7.07761500568606
F         0.49799799229079    0.04846827091179    8.21845615956639
C        -1.41014300351914    0.30413474981265    6.84779558854225
F        -2.18728546342144   -0.27499864661490    7.76948435310690
C        -1.94967710165612    0.75176697599564    5.65184757795689
F        -3.26136768710240    0.58764774986786    5.43134169527153

