58
CSD_code = GUDREE | q = 0 | S = 0 | Stoichiometry = C20H35CoNP | MND = 7
Co        5.05382944470483    2.70717193671018    1.36352654141342
P         2.92820190459541    3.10502626542572    1.65854617410524
N         5.73893399426260    1.01484406808540    3.66767101304869
C         3.44229979883823    4.17413856516261   -0.87394715998145
H         3.06205576994094    3.42906507484018   -1.57534130066172
H         3.50675146126048    5.12857426172493   -1.40885000646945
C         2.49379308617154    4.33035570843329    0.32600666872117
H         1.44318760829942    4.26581359918736    0.02988617322485
H         2.66062082336820    5.31636381661175    0.76540865396214
C         4.80181123796392    3.75283544718215   -0.39638622408171
C         5.47450941138685    2.55511891048974   -0.73939582184355
H         5.15519244318768    1.83309497451221   -1.47479341780635
C         6.66648717003902    2.52891306536706   -0.00028386448665
H         7.44967296499667    1.79013336120505   -0.08428146474813
C         6.79925603398096    3.78196554503747    0.68873406528749
H         7.68662666862098    4.10922929295323    1.20840600120036
C         5.67001750111410    4.54809754487933    0.40925417828080
H         5.50744032677607    5.58000310670895    0.67836651492377
C         2.44446228261748    4.06421872806943    3.22478407596675
C         1.12824292291195    4.83823567032022    3.17036426971977
H         0.26795267676530    4.17878125787443    3.12982223240738
H         1.08860871525592    5.50974204721949    2.31664131003597
H         1.03942163904693    5.44425312374202    4.07234743564015
C         3.59624997839073    5.05353983888338    3.43095075044661
H         3.60646831038202    5.82139364996447    2.66064266547818
H         4.55056628479276    4.52377584489997    3.40326886073994
H         3.50071370001451    5.55005126787657    4.39578745968340
C         2.44006239275669    3.09941741942701    4.40937638480233
H         1.55287441916862    2.47114406013266    4.40861879650283
H         2.45243786226081    3.65619895364773    5.34608723262498
H         3.32742133042051    2.46935701537368    4.36885658637292
C         1.71825224250145    1.67068660186522    1.36706975212112
C         0.24604070836355    1.97752407832683    1.62066798250875
H        -0.06555574918228    2.88922646292028    1.11516106273956
H         0.03695774123321    2.07263183237805    2.68295097462415
H        -0.36242951019001    1.15826107787127    1.23690267001880
C         2.17187433325625    0.48883270327653    2.22425840645051
H         3.23675090500289    0.31571504992508    2.07143914625475
H         1.62640923212110   -0.41040671421605    1.93979745622055
H         2.00138764013932    0.66639997130791    3.28143886998704
C         1.90860231038861    1.27601037151320   -0.09921738842347
H         1.46455158736147    2.00687781713734   -0.77060896673634
H         1.43574227811384    0.31358115609111   -0.29260696567835
H         2.97178771765568    1.18253310776271   -0.31908409055080
C         5.45890196686666    1.69242037739426    2.74789552094841
C         6.04471382600595    0.17353023292951    4.75233710809440
C         5.04047614445712   -0.98537334193156    4.76577587115766
H         5.09761152858993   -1.54321115170075    3.83408415262925
H         4.02747329295564   -0.60567076475946    4.87693937642441
H         5.25847722439854   -1.65652190281145    5.59256377827826
C         5.93827968545470    0.99049895540392    6.04586332192634
H         6.61838443211103    1.83818409468490    6.01149953176442
H         6.19268993922463    0.36866102738252    6.90026024509754
H         4.92562751596907    1.36638965163952    6.17357589048374
C         7.47182546495362   -0.35426586684858    4.56690954723753
H         7.54848116973781   -0.90900895746817    3.63466986726652
H         7.73714743732103   -1.01119872526892    5.39139120727931
H         8.17666877090645    0.47313943330987    4.53369088729972

