61
CSD_code = GUDTII | q = 0 | S = 0 | Stoichiometry = C22H34Cl2Si2Zr | MND = 12
Zr        8.82648843180596    1.82850354838416   10.74183043276993
Si        6.56059031661785    0.00015734554757   12.02235282446804
Si        5.99633287711446    2.11186949270608    9.38833143996374
Cl       10.69017374795560    1.28367620438071   12.04038352073436
Cl       10.00984002701696    3.37414488635981    9.44746601847841
C         6.88908736739438    1.85867668222652   12.18633002011154
C         7.88434678574726    2.48793678078834   12.98822477966650
C         8.37005033797849    2.05830089028609   14.34308132304497
C         8.25419754318131    3.70910940708384   12.36593947159448
C         9.27937897261746    4.68099999060117   12.87572003250193
C         7.47084978351677    3.85630532549165   11.19994852271465
C         6.62204076907374    2.72491048359468   11.06821412749574
C         7.56068649761186   -0.14308738763577   10.40943874679672
C         8.87814045387392   -0.66312166538627   10.25132043763406
C         9.49514403006794   -1.78078032825318   11.05783617038108
C        10.97810273960376   -1.98123693449073   10.74262437928213
C         8.72009262277505   -3.07504689474847   10.77697832926635
C         9.43058383302628   -0.11137642995068    9.07283736629564
C         8.47811574853803    0.74209668974305    8.47301414929271
C         8.60005186777000    1.36443032018046    7.10307245178440
C        10.02822952853630    1.30027373611572    6.56096703446096
C         7.63548444314665    0.64916300191864    6.14831267603380
C         7.30998323549239    0.74295333242288    9.28763381716864
C         4.71911629308399   -0.49578459156575   11.88936559824021
C         7.26447605923672   -0.98963341478176   13.49822882017635
C         4.19237547718803    1.52028938718466    9.18153301649569
C         6.24392186609145    3.58164804902324    8.18933902801515
H         7.46163232311427    4.73757447788266   10.56883466213729
H        10.38524853729215   -0.38210263271589    8.64498240867599
H         8.50091226225808    2.93190082127309   14.98204289424874
H         9.33462534260950    1.54797907061397   14.28194554561517
H         7.64958448239860    1.39526728563099   14.81447196904131
H         8.93678178759952    5.17070509043165   13.79011931215219
H         9.47624575667086    5.44868957764844   12.12758406361505
H        10.21692374979867    4.16435118218973   13.10032884906149
H         9.41263253224541   -1.54918643327776   12.12479768387507
H        11.52831993905811   -1.05407499553818   10.89088370433839
H        11.11655599413972   -2.32049049704162    9.71831727108707
H        11.39616309261073   -2.73499967408100   11.40632828198400
H         7.66568386100415   -2.94846353305463   11.00994414669436
H         9.11712620506375   -3.89315058622747   11.37368117859967
H         8.80861688704106   -3.33894937574726    9.72526232384728
H         8.31504125592330    2.41996925938034    7.15482449228671
H        10.71816395154853    1.77481591519199    7.25662143439767
H        10.08582831201891    1.82753218250283    5.61124401840218
H        10.33674677630316    0.27033011425563    6.39454570901705
H         6.61455184439406    0.71731212858611    6.51671051477050
H         7.90238123711930   -0.40246644345684    6.06849990174656
H         7.68226838460973    1.09440269674030    5.15710612317409
H         4.40249083409466   -0.98748650117790   12.80228763615643
H         4.54874003361842   -1.18767444426933   11.07234654736437
H         4.07800936068304    0.36344691986207   11.74085343649945
H         8.28827889970989   -0.72234751463100   13.73681440964119
H         7.22808923759996   -2.05507118277110   13.30049426730392
H         6.65885208735943   -0.81045034426299   14.38073286460455
H         3.83203249894291    1.78644928881239    8.19390976484041
H         3.53805614288700    1.99522219610957    9.90320657096912
H         4.09324548748907    0.44812156813773    9.29030839433648
H         6.03791392877178    3.30163417154790    7.16224113791096
H         7.25298014582831    3.98366464102979    8.23872254045094
H         5.55569517213234    4.38156766319962    8.44578140628692

