45
CSD_code = GUDWIN | q = 1 | S = 0 | Stoichiometry = C20H18ClN2O2RuS(1+) | MND = 9
C         3.45297730240610   22.55485178203746    8.68071846773123
H         3.33006032606332   23.62884909002366    8.63843033706365
C         2.99494991729622   21.83707996436815    9.76963430165397
H         2.52687994112918   22.35404666562299   10.59116713425114
C         3.13693240401523   20.45283953006465    9.78370070127256
H         2.78622616268256   19.87207401919258   10.62141372683218
C         3.71672869339920   19.83668972624208    8.69284967652138
H         3.82768745911474   18.76537881645373    8.63750088423722
C         4.15156623788324   20.62570654291809    7.62812953610477
C         4.70333145273849   20.13026777255707    6.39874273462255
C         5.44514400723579   19.00179275914462    4.38694399849652
C         5.82497579401084   18.21749281063463    3.30831916733986
H         5.84568240822660   17.14347854619108    3.39505645696774
C         6.15789312647679   18.85143504072704    2.12920962296144
H         6.45185087187314   18.26442310877936    1.27386029099027
C         6.10240643161966   20.24232103267882    2.02345170251820
H         6.34770491554300   20.70894859705122    1.08238409328465
C         5.73577380030411   21.02557442322634    3.09459780704837
H         5.66823381037987   22.09666190082347    3.00530007655482
C         5.41265681009290   20.41022398064528    4.30550052893454
C         6.57329683863663   24.09562466580776    6.32504589053389
H         7.51439569352400   23.81292624388136    6.77964822463602
C         5.55078195737535   24.69181437263286    7.09086468416197
H         5.70112847276205   24.85043030037952    8.15361685691654
C         4.38605340241314   25.19154810650786    6.47662345441196
H         3.65065502268180   25.75693595600726    7.03656549876898
C         4.22835101610201   25.14253780846706    5.06284023110824
C         5.21344137030086   24.44584674350413    4.30477873041752
H         5.14402285605499   24.43008103769803    3.22389825927390
C         6.37401946435298   23.95059763920321    4.93585857397852
H         7.17304157773495   23.54131392324361    4.32611024937395
C         2.75125147231380   25.53638301340072    3.22511203059271
H         2.67264096907313   24.45948866063415    3.03534877120015
H         3.47135902053069   25.99271022606572    2.53348184892629
C         1.37108283467409   26.18954077396541    3.06830528828203
H         0.92119237053838   25.82449550212698    2.13599066939832
H         0.74488444328857   25.88208653003538    3.90839270930662
N         4.03950605118728   21.97535650606682    7.63537385662043
N         5.01763280798264   21.01467051077388    5.46753651977788
O         3.16767076116934   25.75169517768302    4.57291328562634
O         1.41676013148823   27.58412694974614    3.11324883974397
S         4.92928739529854   18.47623158645373    5.96221883267481
Cl        2.47195411010740   22.43553130476319    5.22270346220725
Ru        4.61442908702616   22.94381537956920    5.98628764635368
H         1.82539900088845   27.93307497199035    2.31272434032734

