89
CSD_code = GUDYUZ | q = 0 | S = 0 | Stoichiometry = C50H34FeN4 | MND = 6
Fe       -1.69526347830045   15.61183191610631    5.49554835956558
N         0.26653686438851   15.85886712884908    5.22048026911928
N        -2.10422579207806   16.77570276457709    3.93434269608485
N        -3.63897631096884   15.60431999583392    5.93241184681540
N        -1.27882500278004   14.55584245794818    7.13411144608197
C         1.29798428372604   15.38127900368999    5.97628445550427
C         2.55684268269955   15.80618007127864    5.43507052434814
H         3.51620689191169   15.59264548518521    5.86412493822844
C         2.27804201645316   16.50684650153006    4.31279307999237
H         2.96520709019951   16.96793047688729    3.63053392056934
C         0.84874715650447   16.53262473049759    4.18578108414296
C         0.18635979705200   17.13268879512973    3.12160256152441
C        -1.19608942086917   17.22082366773514    3.01740232826492
C        -1.86122527593815   17.89141591997842    1.93708957300681
H        -1.36968342138204   18.33677868664439    1.09410025737369
C        -3.18412816317979   17.85451731186094    2.21268122080186
H        -3.99589723645092   18.24834612855415    1.63276463514515
C        -3.32319531028649   17.16744813805578    3.46404720805328
C        -4.54207056977279   16.94876150333272    4.09438635873632
C        -4.65997054058549   16.22814344032547    5.27690994125458
C        -5.90315707606046   16.00744415357955    5.95762143483348
H        -6.84653039481214   16.42804984752587    5.66859317160166
C        -5.63139792446764   15.19843978225717    7.00668505466664
H        -6.30800243524193   14.82466262216264    7.75031805568295
C        -4.22101624151307   14.93518589550223    6.96994411708048
C        -3.57573360581636   14.10550387603244    7.88118255379310
C        -2.19722540436433   13.92972631110337    7.92878870627655
C        -1.53930497011314   13.07329403723377    8.87401515927723
H        -2.03664156124913   12.44696552776711    9.58853325878587
C        -0.21022441252065   13.21701566407516    8.66992752257962
H         0.59759513771478   12.73187969158968    9.18218913174257
C        -0.05873961886857   14.15033034381577    7.59136632661030
C         1.17242862260621   14.55861494104537    7.09008418044330
C         1.00226757676571   17.72444517644782    2.03638948295715
C         1.04326149399658   17.12147453652632    0.78377751663237
H         0.47442512633858   16.21881184473021    0.61431374175283
C         1.80675539146241   17.66649914512415   -0.23266901555732
H         1.83405819024159   17.18729374080258   -1.20072668262341
C         2.53480553443635   18.82350572933655   -0.01151550637051
H         3.12989346034499   19.24961923972061   -0.80573648078940
C         2.49606584902982   19.43239425579963    1.23163638259824
H         3.06007030057473   20.33682809799141    1.40810407928505
C         1.73636627629251   18.88600880697164    2.25049641425358
H         1.70202739827993   19.36123836905484    3.22017734126422
C        -5.76706990693226   17.48921694027635    3.46999852561580
C        -6.75554338793102   16.63223018710186    2.99624862049621
H        -6.61523014617446   15.56455072989013    3.08512982980337
C        -7.90074030942057   17.13860725860178    2.40893798687700
H        -8.65995518175170   16.46341736019104    2.04126273223944
C        -8.07589655607054   18.50738843136557    2.29200616734754
H        -8.97164633195409   18.90233758669517    1.83578623229266
C        -7.09796169628624   19.36772070055592    2.76259903152464
H        -7.23093311662257   20.43637854688784    2.67578813540296
C        -5.94952572475484   18.86301211741240    3.34494241440565
H        -5.18736215774355   19.53228636235907    3.71699711741246
C        -4.40919101123220   13.37570967545257    8.86125684846828
C        -5.31356626527505   12.41051297921199    8.42892251738788
H        -5.39686329000857   12.20003671155067    7.37218473117149
C        -6.09243335777395   11.72052271459674    9.33988912013042
H        -6.78761539164938   10.96988226276805    8.99262841826960
C        -5.98274314897206   11.99019940580942   10.69377262358013
H        -6.59251675772582   11.45246948554515   11.40476070310967
C        -5.08908451690307   12.95304789518509   11.13226366769054
H        -5.00288800275495   13.16971192024948   12.18718938581955
C        -4.30513701783354   13.64004208113205   10.22317398154488
H        -3.61154141619232   14.39548766164089   10.56294703881365
C         2.39820652812190   14.08656932916879    7.76671882643186
C         3.30940438018535   13.27005908229915    7.10402515727346
H         3.10896160763703   12.97151839688443    6.08497909508984
C         4.45518279963924   12.83413942863409    7.74447506120872
H         5.15381920536462   12.19768699666021    7.22084022295417
C         4.70799290674784   13.21114353124684    9.05278975647016
H         5.60458784659639   12.87282194048734    9.55093073956783
C         3.80619103886622   14.02329179337199    9.72002671725985
H         3.99928953351621   14.32122890165740   10.74042311051193
C         2.65736330295612   14.45579406135075    9.08330352270025
H         1.95470151017853   15.09321228937955    9.60027872693131
C        -3.55255654719235   13.67243521747230    3.44877447880972
H        -4.57850102086577   13.52210701500056    3.75143506027778
C        -3.26715708880357   14.19977690053742    2.20383223289441
H        -4.06888629608542   14.48010894633754    1.53653689410919
C        -1.94881257849648   14.35579207764748    1.80013768516096
H        -1.73611954475920   14.75313927451316    0.81848935113432
C        -0.91529545549350   13.99239955002277    2.64321909598817
H         0.11054878473298   14.09112720560269    2.31934588515639
C        -1.19251997473273   13.48682059017358    3.91079845220726
H        -0.38630197422750   13.11841398729758    4.53395832366934
C        -2.51932219247765   13.32297266274784    4.31446038697287
H        -2.74485505282231   12.82774604689527    5.25087273646203

