40
CSD_code = GUFKID | q = 0 | S = 0 | Stoichiometry = C19H15F2NOPtS | MND = 4
Pt       -0.99009868017797   10.30238266690120    9.00193747975445
F        -5.43592397435780    7.18522939230543   10.33425211034342
C        -4.56403109256145    8.16901771302030   10.66359756329501
C        -3.56019018393034    8.48806962241960    9.76585402233501
H        -3.54368325560319    7.91731122452832    8.84799924639373
C        -2.62801954765164    9.48818679890311   10.03365150468689
C        -2.78863028213523   10.14733362482783   11.28547974969221
C        -3.80367201348892    9.81237993688958   12.17929239599504
H        -3.90006753041642   10.32919301947341   13.12201102798168
C        -4.70752373186432    8.81374776986716   11.87592147630890
H        -5.50221914797917    8.53676217619828   12.54997085001665
C        -1.82175556444169   11.20688104936524   11.57734538211570
N        -0.91851760458867   11.41172563235399   10.60455471940314
C         0.04541202189929   12.34692195520986   10.69358881891397
C         0.12448593644249   13.14362154823927   11.83571177481405
H         0.89006692545589   13.89605985493395   11.92287794414246
C        -0.79166692443851   12.95403765764676   12.85479629030663
H        -0.74224954084063   13.56267570277554   13.74545328582326
C        -1.77248980156111   11.98447237566623   12.73382712417814
H        -2.48668921867686   11.83516317206892   13.52579067292448
C         0.92175760476920   12.40737024268044    9.52765149556126
C         0.62938604406899   11.47090327062930    8.50113982811473
C         1.43870350401785   11.49997410835591    7.37311275479771
H         1.27411191263690   10.81522965543298    6.55516094207514
F         3.24642871735880   12.41781686655665    6.16727438363041
C         2.47640115765567   12.41098016809216    7.27873973371542
C         2.76214559489960   13.32261194449371    8.28012283196319
H         3.58157513015417   14.01442998194791    8.16410655608164
C         1.97374827472889   13.31471960041682    9.41291052322777
H         2.18378043970112   14.01987895174740   10.20330740135016
S        -1.05274865809070    9.01874972986661    7.16465617925366
O        -0.06995359004364    9.19011372363517    6.11022662745733
C        -0.99491249421897    7.23921020033252    7.57247113376887
H        -1.18745391036730    6.66781817816828    6.67117543674411
H        -1.70995555810918    7.00775067574213    8.35107735783610
H         0.01273464276843    7.03760230492833    7.92301654004400
C        -2.66898805869121    9.10316996896666    6.31830887923888
H        -2.69053571044787    8.35716538725280    5.53161156897441
H        -2.73690181062788   10.09495248917613    5.88173143112486
H        -3.47266002128425    8.95677965797641    7.02808495560994

