85
CSD_code = GUFKEZ | q = 1 | S = 0 | Stoichiometry = C29H49N6Ru(1+) | MND = 7
Ru        2.72221992097513    7.60530859888673    5.88723378652678
N         3.10105220592565    5.94838340270725    7.01593461709047
N         2.01753354986705    8.15348211532124    7.78916912535375
N         1.97459273466361    4.07865631880413    5.95895067001661
N         4.15850734891588    4.22622433135960    5.76063802894861
N         0.38346793489345    9.87874214163205    7.89395797399483
N         2.45681516687262   10.50028597338276    8.24957946805858
C         2.70464856020264    5.95409236665499    8.42173746383061
H         3.42982390469124    5.37823241719258    9.01538707678501
H         1.70786387049077    5.51592002725350    8.58328597491325
C         2.70957174441718    7.42017679343591    8.85390763305097
H         2.17549995697869    7.54672951535781    9.80615829560317
H         3.75493243164753    7.73454477249273    8.99437901856704
C         3.06501445200920    4.82429009330170    6.29698325132491
C         2.40264952022715    2.99768991037197    5.20661925902141
C         3.75594409194654    3.09126201955036    5.08282276931390
C         0.62343806700848    4.58297020903932    6.15928422976955
H         0.77576317191189    5.62583236428201    6.49296928950816
C        -0.16190491141267    4.63986806825100    4.85069495492093
H         0.45352137982358    5.06278709718759    4.06057468480209
H        -1.02909019195021    5.27984953881132    4.98836993348483
H        -0.51247805207777    3.66053392734574    4.54315383478269
C        -0.13014808925559    3.80875912932246    7.23859661613428
H        -0.43098322247692    2.82736528752249    6.88222109053855
H        -1.02699871760524    4.35516081201010    7.51735621738418
H         0.48478451442475    3.67458354132224    8.12551537188883
C         1.51124422330094    1.92915702002101    4.68273269200200
H         2.07010771724364    1.00180425297287    4.58701844509533
H         1.12129012135823    2.18595122121419    3.69813561642157
H         0.67779664927413    1.75108364539070    5.35458073609020
C         4.67093831688196    2.16980004923234    4.36069569359564
H         4.14896748011694    1.24518539558770    4.13244098929295
H         5.54455068345126    1.92923287669047    4.96060207617392
H         5.00458762073248    2.60545254792875    3.42019061198928
C         5.49245877610998    4.77039658560179    5.97348088960297
H         5.30310931406256    5.79505693466788    6.32501121117682
C         6.21238470566325    3.99988985731697    7.07847171536906
H         5.62198678103056    4.00496945124725    7.99157246102536
H         7.17056364507203    4.46872935414047    7.28299880374293
H         6.39133416611901    2.96778225022718    6.78885237757124
C         6.31777322800121    4.83544457984586    4.69216491310717
H         6.76847726181954    3.87758193436027    4.45354903757254
H         7.12040149570435    5.55624236524584    4.82458660202782
H         5.70307777269327    5.15664103688778    3.85531462610080
C         1.66170483515555    9.42548909973007    7.96729730380189
C         0.37794864382000   11.24212546204664    8.11662631010490
C         1.66013935531539   11.62786561771389    8.35499966205338
C        -0.80047917847160    9.06208887847448    7.67241216281100
H        -1.66047051085709    9.72076457186429    7.81968102933704
C        -0.87412802482730    7.93141466728438    8.69586101040009
H        -1.82965604716633    7.42224840610835    8.60654348015699
H        -0.78655671644349    8.32449648306832    9.70597216869830
H        -0.07348425027207    7.21899495184027    8.52228264491109
C        -0.81728712336331    8.52439850332289    6.24584748288573
H         0.09028979526672    7.94054635782837    6.06748079426142
H        -0.85668619983209    9.33958584009020    5.52800750582342
H        -1.68748206677230    7.89125745276591    6.09992619938717
C        -0.86065962017829   12.06324837686394    8.07957354150762
H        -0.60901853769225   13.11257622361853    8.19408746625286
H        -1.54350705105611   11.78498438010242    8.88231267834421
H        -1.37763355882636   11.94207888122741    7.12877594139069
C         2.14667813904481   12.98465328263294    8.72219314967184
H         2.50304027021880   13.53202543117200    7.85049383163159
H         2.94980671285841   12.92589059580953    9.45031072719129
H         1.33269286904926   13.55151198784458    9.16588701519446
C         3.90925279028451   10.42020427188836    8.18154912309461
H         4.10353145456989    9.46015985327301    7.67165594412821
C         4.53918015424873   10.40387184029405    9.57323366159226
H         4.43998136866759   11.37306860651063   10.05499039842483
H         5.59777571052087   10.17368380846376    9.49106339231248
H         4.06804162486576    9.65835863862379   10.20874556907430
C         4.50971057106546   11.52604414381917    7.31457783149469
H         3.89084010175751   11.70446163932130    6.43877312894100
H         5.49684001911567   11.21541846979446    6.98209010395085
H         4.62258176653325   12.45513502664941    7.86319444746280
C         1.79456365621861    7.91838264250503    3.89564856863448
H         0.79922121130275    7.68810481050719    3.53664671322483
C         2.94367567553774    7.09203344516997    3.74047669026893
H         2.96683654553113    6.12753158919883    3.24968408209265
C         4.06965066713912    7.83515377724010    4.16765277212364
H         5.10566936153104    7.54542170006644    4.05569014690299
C         3.62290695931785    9.13111437171906    4.56554135284237
H         4.26986209277938    9.96878111741558    4.78957736556610
C         2.21949235796378    9.18333630946860    4.39057162063105
H         1.60454287429987   10.06995635529000    4.46728484783699

