43
CSD_code = GUFKOJ | q = 0 | S = 0 | Stoichiometry = C20H18F2NPPt | MND = 4
Pt        5.78323809159915    1.11307242436290    5.74146544546813
P         6.52804272150601   -0.55603918998441    7.08684363794524
C         3.87866578088974    0.47238836792549    5.24631109128615
C         3.07434432882897   -0.57073914679697    5.69617988008256
H         3.42366292302632   -1.26625751560923    6.44059620037489
F         1.05604299707682   -1.78617397471423    5.68673868591279
C         1.79195808891887   -0.75092667191924    5.20983652520527
C         1.23269410014053    0.07948625148633    4.25840922523183
H         0.23058717058157   -0.09621318612838    3.90040816812630
C         1.99755941938527    1.13344805898958    3.79949894190296
H         1.57444018527296    1.80287235970003    3.06539417443619
C         3.28828571219379    1.33374683438167    4.28284364475012
N         5.29327430041462    2.53615203111549    4.49070252037013
C         4.11611287935434    2.45869760575835    3.85481436466730
C         3.78265159595254    3.41310929979622    2.89419468267989
H         2.84213851278390    3.36048445449008    2.37178640066104
C         4.68084273634258    4.42778262785683    2.61518405546339
H         4.44019301517976    5.17431145564804    1.87265745664951
C         5.88923524642856    4.48367955220445    3.28715103102738
H         6.59435947337273    5.26871816194259    3.07112754566720
C         6.18152911538661    3.50693967093363    4.23864774709446
C         7.40495132641364    3.41422043659722    5.03368689804694
C         8.40675207025297    4.37964212398908    4.96505757656839
H         8.30648375234518    5.23160011069966    4.30905853239342
C         9.54387652010133    4.26893361962079    5.74026065364156
H        10.33204469498054    5.00424572936797    5.70542614022289
F        10.74863231440059    3.04187092719962    7.35320650217916
C         9.64312572994884    3.17515553425271    6.57752819914949
C         8.65860187897895    2.20717799372214    6.65713572098803
H         8.82985619445476    1.39029314011350    7.34301090761161
C         7.49994568766494    2.28274512812515    5.88752432716972
C         5.65264757275339   -2.14121578887315    7.41411519696988
H         4.76109990080198   -1.96351683206077    8.01059094821850
H         6.31336548410306   -2.81179639194226    7.96282202139928
H         5.36888624780588   -2.60946392153475    6.47437663850515
C         6.86724040666801   -0.07151184491687    8.82525186116528
H         7.40197035583242    0.87214432521837    8.86776426768650
H         7.43977494076546   -0.84571333832417    9.33388485442655
H         5.91079891601017    0.06025090297770    9.32869319794473
C         8.11203949438463   -1.26351933140052    6.48210253767334
H         7.89360248637222   -1.85803738690675    5.59615429194137
H         8.56248384057736   -1.90133160728266    7.24121292365475
H         8.80606178982980   -0.47861300003833    6.19964437738164

