72
CSD_code = GUFLEA | q = 0 | S = 0 | Stoichiometry = C29H36Cl2F2NPPt | MND = 6
C        12.20344616203250    1.96920627853175    5.47952032814663
Cl       11.71930236810852    0.67551848803974    1.21307726377394
P        10.12261599941234    2.32153236745249    3.01646803151652
Pt       12.04160254526867    1.16379327645836    3.62298464447918
C        11.77722652719293    1.43028345579543    6.68195448596489
H        11.31228701624531    0.45935431717640    6.74872219591404
Cl       13.83110563166813   -0.21261835025596    4.26371836455369
C        11.96351019243702    2.13372504784218    7.85921954340229
F        11.51975988294192    1.59377057854738    9.01269809307705
C        12.58163895980480    3.36963341596696    7.88878673190809
H        12.72629930817650    3.88240917118086    8.82597407827050
C        13.01686343071845    3.90559634756092    6.69493443497452
H        13.53434013445885    4.85207007760068    6.71070987601348
C        12.82471644893242    3.23035610323847    5.48728960870976
C        13.31726674853256    3.79394464481690    4.22574057198535
N        13.47626838163908    2.93033554947512    3.21142775253929
C        13.62425311766667    5.14586657853750    4.07354248144634
H        13.43969253511202    5.84266352273588    4.87446224319968
C        14.15045316027409    5.58991573748338    2.87391891469469
H        14.38933382727595    6.63399043682942    2.73462021393974
C        14.38636400024430    4.67372059664108    1.86871860279329
H        14.84743553357992    4.96940426187992    0.94017316571136
C        14.03274604425825    3.33697433090757    2.06921942952203
C        14.30738382692379    2.35043457560588    1.01648014802956
C        14.04967808488838    2.65290212377740   -0.31953680543551
H        13.61928630130168    3.60795028511188   -0.58517093966240
C        14.29759951543329    1.72299402120492   -1.30895956632584
H        14.07966150939073    1.93223190200335   -2.34456645315224
C        14.82334835861798    0.49412886121986   -0.95059411475918
F        15.07601332873418   -0.40955627595124   -1.91878043736942
C        15.11346481324472    0.17691987566810    0.36343282791978
H        15.52074288865415   -0.79050184875199    0.60975468768433
C        14.85029243901765    1.11005652497103    1.34701619624401
H        15.06838816878336    0.87658991259532    2.37791256602842
C         8.88550628549685    0.97820735900702    3.16698526731660
H         7.87796559376117    1.37860921369248    3.30389932077772
H         8.91589029156919    0.40951641333031    2.23516051153152
C         9.32022874899151    0.10792751397787    4.34563080881530
H         8.64410791189716   -0.74712519608953    4.44263294398128
H         9.24751994046459    0.69329488184081    5.26698521670129
C        10.74782599111181   -0.41119673400881    4.17349310490316
H        11.12855046569310   -0.76571341472273    5.13736384280609
C        10.83555493952040   -1.57382720584722    3.20334125110013
H        10.38739935655899   -1.34934375970071    2.23993899818652
H        10.31587204086607   -2.43198875491378    3.63553758028602
H        11.87298571774594   -1.86149813551922    3.04291882029343
C         9.62919640309246    3.56457714056668    4.29696648691381
H         9.65077288608074    3.02512838407872    5.24718019815975
H        10.42622708500095    4.31376688182824    4.34301337878405
C         8.28248347406793    4.25759127893021    4.11570477753388
H         8.31451802705778    4.89635945475332    3.23106287025194
H         7.49344074524348    3.51696859051466    3.96892109653752
C         7.92531103755785    5.12650954981230    5.32510185058036
H         8.74576013092226    5.81921253561347    5.52538505872738
H         7.04499218622805    5.72139310133651    5.07152254486108
C         7.62454893734594    4.31799124603282    6.58182450434243
H         6.84875255329016    3.58128775518425    6.38470001435162
H         7.27592919377753    4.97598215383771    7.37377967182457
H         8.50937679592952    3.80036116649854    6.94410951398614
C         9.72716640999171    3.12491618978068    1.41788690379535
H         9.76905815339021    2.34109903007131    0.66048423721311
H         8.70655211590066    3.51442560496682    1.48273835180087
C        10.72931271552176    4.22465572435816    1.08392889264951
H        10.79448726039435    4.93648867260603    1.91380901934366
H        11.70839164421066    3.75758451452847    0.96511805569487
C        10.37654518234786    4.98101995757703   -0.19642266979392
H        11.12421010133444    5.76380915120820   -0.34752705770162
H         9.40777539759054    5.47268572792569   -0.07540826370046
C        10.33979185732062    4.07765578019575   -1.42423696065799
H        11.23479411939218    3.46226146716604   -1.47155588967934
H        10.28044242739624    4.67542571498694   -2.33075150577307
H         9.47686868498267    3.41788485268923   -1.39889191247608

