72
CSD_code = GUFLAW | q = 0 | S = 0 | Stoichiometry = C29H36Cl2F2NPPt | MND = 6
Pt       26.98772261246310    0.93123777894016    5.04908758829809
Cl       26.48507561973483    2.46987083513497    6.79828232100297
Cl       27.46171323091346   -0.71226651583635    3.41410936969565
C        24.95070910401467    0.54302260538852    4.63870111031904
C        24.11447921926390    0.91643889427917    3.59812762784787
H        24.45682969977559    1.55657173394213    2.80185772914834
C        22.81063983397160    0.45662813243468    3.54074767586487
F        22.02757383596544    0.86287892988391    2.51674918769607
C        22.28355289474629   -0.39760170225848    4.49127752665296
H        21.26029901455929   -0.72964264975251    4.41754172025207
C        23.11384441536473   -0.82300598302154    5.50673505087978
H        22.73210013446187   -1.51955155273573    6.23723015626605
C        24.43369536068846   -0.37479619531794    5.58178931450243
C        25.36516136496697   -0.87080976982999    6.58928242123605
N        26.63138764952211   -0.48227004812127    6.41042741549140
C        25.05472072501033   -1.70290630430846    7.66478180169718
H        24.03993325058111   -2.02018350904937    7.83512575560890
C        26.06687926871667   -2.09867314938918    8.52067326317440
H        25.84188197429548   -2.73666256030247    9.36226920873772
C        27.36452824468809   -1.66945086226157    8.30731896834807
H        28.15339172702078   -1.96238708259148    8.97911342891638
C        27.63176837103933   -0.83301189076731    7.22319233752879
C        28.93040106683197   -0.27025738731777    6.86650801537839
C        30.10426986621580   -0.66387239835676    7.51141300073505
H        30.07206232188921   -1.39643131245978    8.30313483393714
C        31.32317803268327   -0.13754744560313    7.13932770095896
H        32.24102419749316   -0.43008278381612    7.62381953942555
C        31.34019036982838    0.77915559737563    6.10542333449670
F        32.52213005362481    1.30427202762957    5.71221542390772
C        30.18899337815420    1.18290735308067    5.45178623099486
H        30.29936301817349    1.88675321252061    4.64240316832397
C        28.94951531813322    0.68064049820473    5.81931156989026
P        27.37020404150183    2.78649033052355    3.67082994166131
C        28.12246270652931    2.44763007842583    2.02552705217937
H        27.41937479026243    1.77223969693721    1.52630468517370
H        28.15030636749650    3.38849725287169    1.46630118567024
C        29.49698832273651    1.78920412924560    2.04513535236554
H        30.23447671598143    2.46377256891613    2.48559340887699
H        29.44805280613446    0.88223727149921    2.64968495139914
C        29.95110339132962    1.41799639102762    0.63469946257303
H        29.22723869318758    0.72755708841228    0.19804678227564
H        29.97960066882654    2.31452712923193    0.00931536247865
C        31.32648138745647    0.76323184671561    0.65123966732752
H        31.63682673209442    0.49871443061490   -0.35664620948402
H        31.30397739547385   -0.14135840592971    1.25388871365747
H        32.06851913577898    1.43777210309287    1.07339903856002
C        28.38793528433246    4.06168139840332    4.53086879353938
H        27.69912552204959    4.54586506014024    5.22966977418520
H        29.13845504654615    3.55840683774794    5.14117521754797
C        29.05333981321920    5.10577648085478    3.63806027139594
H        29.78532104258216    4.63173098165639    2.98201994698323
H        28.31323191327933    5.60306394425270    3.00730460920294
C        29.76233491438446    6.16113227883427    4.48701026688184
H        30.50337765338670    5.67288136928721    5.12316494918357
H        29.03454184213377    6.64650229479266    5.14075999939771
C        30.44977761794594    7.21172726167430    3.62336446951617
H        31.19895912663386    6.75100086888425    2.98323620098808
H        30.94279168661350    7.95263212299351    4.24748284585932
H        29.72644024288386    7.72294118946088    2.99151390222404
C        25.93828259474500    3.80780369669320    3.11580047867858
H        26.36276930143760    4.71510544377893    2.67715197904870
H        25.43200406693482    3.26602616236414    2.31318331428564
C        24.94483141904206    4.16781771149706    4.21727798255611
H        25.40410511803307    4.86973954437494    4.91536668688198
H        24.69003442398227    3.26898078377773    4.78185349721458
C        23.65977914231684    4.78125937745846    3.66021554681503
H        23.18785285632302    4.07636759870209    2.97231515976490
H        22.96946352354202    4.93990737522600    4.49087949764437
C        23.88973698945446    6.10956504517753    2.94757711068204
H        24.47582004252375    5.97503510338717    2.04156871209167
H        24.41302613863813    6.80584086338191    3.59973275092612
H        22.93833434746535    6.55503079787406    2.66716284458308

