94
CSD_code = GUFSAB | q = 0 | S = 0 | Stoichiometry = C51H40P2Ru | MND = 8
Ru        9.82114160270548    3.45422667400163    3.62945709719423
C        10.30966017933432    5.27691167162621    2.96792394294546
C        10.64554046169845    6.29760840228988    2.39008622077970
C        11.00450807223015    7.45416135095264    1.78578160253331
C        11.32538453776723    8.48949764862450    1.23796662883968
C        11.69070229877818    9.69230805065079    0.60825011004902
C        12.88294113211199    9.78023564744019   -0.11709828227998
C        13.23448442407024   10.96324146445859   -0.73505272170351
C        12.41045070605637   12.07424359535738   -0.64210018659392
C        11.22705880297932   11.99561906520380    0.07576307764716
C        10.86524525345206   10.81767408290193    0.69738205894957
P        11.61633951510630    3.64454849832897    5.00139813364729
C        13.18522280446931    4.28104158112913    4.30897909870218
C        13.34914226527726    4.34009065294977    2.93162521336857
C        14.53239268830423    4.80661407630894    2.38705307892302
C        15.56277137265121    5.21306486183335    3.21729596821015
C        15.40851418669440    5.15027462174952    4.59364888399929
C        14.22685952574718    4.68713411577448    5.14066476206291
C        11.52987188796448    4.70824871698810    6.48234940542415
C        11.48723074050995    6.07862040264103    6.23332517341564
C        11.42312446210091    6.97343118209250    7.28305259499832
C        11.37437394932661    6.50854107089694    8.58790957143257
C        11.40938628489977    5.14792817109022    8.83952296865655
C        11.49626897955575    4.24570998152186    7.79222281517108
C        12.15634645323161    2.04367106752971    5.70455230186703
C        13.44587514151030    1.53847017037869    5.58860584723195
C        13.75216838328634    0.29343951051425    6.11246111118485
C        12.78108311830684   -0.45772318476903    6.75229204121281
C        11.48912230154940    0.03368950975838    6.85807512639312
C        11.17888061129602    1.27102437361865    6.32878549036340
P         8.22310325680604    4.36211139296972    4.97064140562575
C         6.72202126720345    4.91717087266975    4.07966424861448
C         6.82069197450390    5.26663231020038    2.73918347103315
C         5.71520032127243    5.75033945810593    2.06178556260207
C         4.50641789963692    5.89147756760396    2.72191059679533
C         4.40925454528755    5.56690294188164    4.06642970348865
C         5.51332127194621    5.09158713532343    4.74818161220842
C         8.31518269638670    5.87648822575707    5.99832177152079
C         7.88718823002796    5.98719977790797    7.31470615961909
C         7.89560826034617    7.22181006676938    7.94161993296113
C         8.30460998729242    8.35346769575111    7.25910452600677
C         8.71001080374084    8.25143911046291    5.93771670395775
C         8.71653330569983    7.02092942984685    5.31181307582705
C         7.56898530923202    3.10234173760222    6.11413827422676
C         8.26875122183598    2.85107475592320    7.29359868147151
C         7.88943613577830    1.81536716164964    8.12759121010614
C         6.82018650938451    1.00348562298374    7.78328730034446
C         6.13539118998328    1.23103283527343    6.60071596415058
C         6.50846310412776    2.27042172505732    5.76739851369801
C         9.06415555114097    1.33739004517064    3.48219150116463
C        10.38869425850048    1.36594144351969    3.00666429801909
C        10.44392282656720    2.21171056457038    1.86243052966791
C         9.12889059589293    2.68521599354166    1.61620516396868
C         8.28462875125583    2.16518744752223    2.62438885000282
H        13.52328255129050    8.91193250383117   -0.18679602244451
H        14.15776332152121   11.02291233811295   -1.29453172421665
H        12.68949285499110   12.99820595071324   -1.12758321146829
H        10.58302968609070   12.86100560531249    0.14927909944204
H         9.94242150305519   10.75231398953078    1.25700299835071
H        12.52925785719154    4.03995099046199    2.29296091211082
H        14.64855983345062    4.85851909244596    1.31440065946535
H        16.48592852796247    5.58204710826233    2.79483908242996
H        16.21272649835458    5.46623133516430    5.24252842550419
H        14.10682859185317    4.63978349958338    6.21475528231962
H        11.51459479179213    6.42055780545366    5.20606182000777
H        11.40740267466050    8.03471780986349    7.08621548042710
H        11.31560473274083    7.20748128931785    9.40915143504862
H        11.37923543869283    4.78484723283388    9.85711699772575
H        11.55324636007456    3.18511900253136    7.99702611487316
H        14.21057796885978    2.11165792880722    5.08467273713134
H        14.75670442834607   -0.09291618187886    6.01629660251084
H        13.02703725969903   -1.42776946261014    7.15886787017912
H        10.72230114941753   -0.55167458516292    7.34557603106941
H        10.16647018158716    1.65022588787718    6.38453292167383
H         7.77674746266340    5.16632884171080    2.23836741852361
H         5.79770784261842    6.01985046736621    1.01887072072962
H         3.64068228733484    6.26313760050991    2.19346148799922
H         3.46967940750250    5.69113863038358    4.58545471987676
H         5.44266558351545    4.85371411787812    5.80117158247561
H         7.53768748308301    5.12198228387722    7.85837775616852
H         7.56812412509277    7.29870931862796    8.96862697103921
H         8.29992280177486    9.31385319676358    7.75378199385571
H         9.02010524602075    9.13199378642734    5.39442347727174
H         9.03689541040513    6.92440995332180    4.28257357577039
H         9.11502831985912    3.47830750427109    7.54443147336399
H         8.43440868010580    1.63523191126844    9.04343803354110
H         6.52574661512341    0.19093371946994    8.43123501747101
H         5.30827413083445    0.59267508798646    6.32429346021223
H         5.96981202682649    2.44097724086818    4.84507567070106
H         8.67368574735935    0.67647548971443    4.24436452144508
H        11.20498149301642    0.75018156159682    3.36548447311885
H        11.27902351654632    2.28701191914758    1.17772705613849
H         8.80931522448175    3.23734144885632    0.74163883946739
H         7.20329896405267    2.23892442680414    2.63326005068799

