63
CSD_code = GUFTOQ | q = 0 | S = 0 | Stoichiometry = C21H27BN9O2ReSSi | MND = 6
Re        2.60096251120308    0.58121298043426    4.30353808731076
S         2.13059550860917    0.52939497099653    1.84004819059981
O         4.14811154198190    0.05814476511644    4.09406397251691
O         0.96749587319749    1.22563285368192    4.50013989589132
N         1.89525834917363   -1.26871578988628    5.05987272009649
N         2.85214484258115    1.12777971785077    6.45704943018201
N         2.15970303810594   -1.78382963758740    9.42901479541696
N         4.75638128849464   -2.56182339756103    5.82731926186939
N         3.09537268008186    2.43068067598831    3.21972327097986
N         2.10467359926227   -1.78099810243361    6.27329134104916
N         2.96622759169881    0.26218305365055    7.46377106872126
N         3.13818991433587   -1.99752256489055    8.53431871384685
N         4.53020411056829   -1.44068532186028    6.52613317758625
C         2.72053298935162    2.14044877503288    1.95732460941312
C         2.82257266295279    3.06107489714898    0.90593269363796
C         3.36102122944162    4.29196528295921    1.22728806937076
H         3.46682881321240    5.04170302608766    0.45827295406634
C         3.78037552897813    4.57959465024966    2.52676883818375
H         4.21688084456643    5.53425296413424    2.77208236405998
C         3.62908859502968    3.61360555987148    3.49810660135581
H         3.94662098359170    3.77245841136577    4.51896551239440
C        -0.29185235457295    1.72851256178645    4.61285080843204
H        -0.52940281270967    1.94113864093568    5.66565049271284
H        -1.02813247889058    1.00878696024356    4.22788206180976
H        -0.38879701010301    2.66230931601019    4.03857694301249
C         3.30948500477168    1.11789598472512   -1.45996305673355
H         4.36348861282695    1.37840455007305   -1.49532764391813
H         3.01101674511202    0.81346318581064   -2.45835116859265
H         3.20320741110360    0.26024333336166   -0.80409884204888
C         0.39372096336222    2.15748310747644   -0.78053411164776
H        -0.19466984552553    2.99681964090431   -0.41994284144695
H         0.21283438482118    1.31453402177390   -0.12215163203325
H         0.02098426634870    1.89470359005794   -1.76552464870946
C         2.51470425319189    4.08966390869951   -1.97310218641889
H         3.55984507619345    4.37699785946363   -2.02952038597530
H         1.94714345364890    4.95285537374335   -1.63947364483479
H         2.18909815605029    3.86022686926828   -2.98202960010260
C         1.39815729082291   -2.90515678140411    6.40705589517154
H         1.42798672748827   -3.48213061700717    7.30814393951590
C         0.69103627710706   -3.12215530991276    5.23894000418634
H         0.02656871412800   -3.93081525926273    5.01653390833290
C         1.04449093915258   -2.06178546841176    4.41636361686823
H         0.73708686905630   -1.84190478518283    3.41145535536462
C         2.91998809032362    0.92183985029574    8.62525830825766
H         2.97819617530317    0.40386252753802    9.55974361430289
C         2.75675879352618    2.26808960549294    8.35774864171123
H         2.67842482666176    3.07141749675724    9.06037294053888
C         2.71877326117907    2.34405265251240    6.97079867421632
H         2.59314478233371    3.20346369475759    6.34154741546752
C         3.93659250373488   -3.00823213111456    8.94484839203476
H         4.76402797083959   -3.33482888373594    8.34950265977637
C         3.46159741399982   -3.45736160963973   10.15289726268372
H         3.85465610002649   -4.24351241245879   10.76424834373985
C         2.34503005796097   -2.64896948758108   10.40551599884171
H         1.68204592774244   -2.66428329313377   11.24892670033508
C         5.61778757493239   -0.63716135918783    6.49280868736325
H         5.63348634098358    0.30716630254393    6.99996899355440
C         6.58095473395050   -1.26598329074559    5.74397904783734
H         7.56423138993594   -0.91415847596451    5.50768477805932
C         5.97919933805367   -2.46860971778288    5.35059440327159
H         6.38805896588938   -3.25725246062996    4.74959246823599
B         3.20525094667113   -1.24237429265727    7.22553683044370
Si        2.25275166681643    2.57418683119128   -0.84383299258761

