48
CSD_code = GUFVAE | q = 1 | S = 0 | Stoichiometry = C17H17BClN9OReS(1+) | MND = 6
Re        0.90952435991810    1.55517814379258    3.55895549572003
S         0.45486975358809    1.26297988086128    6.02675291866912
Cl        1.42547265526486   -0.64937041337956    3.50651912897227
O         2.32433539018734    2.35935499747332    3.84603710665517
N         0.91300283515551    1.53107074865886    1.45556202593853
N        -0.11648609077726    3.41085642255627    3.45825366557480
N        -1.10279192474762    0.93782677479452    3.21741537903782
N        -3.53730452213337    2.73394266438320    0.18374149579964
N         1.61952089149868   -0.11820536939193    7.90385429432678
N        -0.06150872343320    2.09973059573420    0.73408270859976
N        -0.92878929952112    3.72629378179813    2.44273724408820
N        -1.89387097462484    1.47971260147603    2.26495803229154
N        -2.29394793874413    3.19247701093342    0.40664208768735
C         1.80951662012056    0.46532684150928    6.69605378775803
C         3.09620071086727    0.39815389252773    6.13507719524797
H         3.27687447029235    0.88589842314193    5.18746979082627
C         4.09885897004953   -0.26132665228602    6.80072570523112
H         5.08734437588081   -0.31202129033990    6.37204139946193
C         3.84539428256545   -0.86406539638228    8.04380288976842
H         4.62328739842920   -1.38740760282127    8.57320504133490
C         2.59028852465446   -0.76349461424968    8.57611304062679
H         2.32498580270745   -1.18587405186252    9.53297807745328
C         0.22541944259055    1.96422883685518   -0.56579823507726
H        -0.43393025057418    2.32751600698928   -1.32779280730718
C         1.43599393326768    1.30454335891848   -0.68232106689343
H         1.95250144119568    1.04536775711289   -1.58222272456033
C         1.83089754633902    1.04865330046103    0.62341813720057
H         2.70952755084651    0.55648463249630    0.99318298857691
C        -1.37716057473708    4.97759623006121    2.61018396581837
H        -2.06113393611846    5.42659413374828    1.91922453208906
C        -0.81732026270565    5.49005094381779    3.76413994241079
H        -0.95929099328155    6.46492688164102    4.18002294305948
C        -0.03065878748510    4.46063897423535    4.26674682245809
H         0.58588651813283    4.42955122591601    5.14348464190737
C        -3.07758183829905    0.86048212489605    2.25089506017277
H        -3.82710690629688    1.16657094303302    1.54633998292222
C        -3.06573468686731   -0.11848712948991    3.22850650343663
H        -3.85238303829535   -0.79728218114469    3.48121364273674
C        -1.80904121024478   -0.03173656994422    3.80631392316303
H        -1.38609440602107   -0.61969391074586    4.59915105057727
C        -2.02694538035838    4.23034556580268   -0.43568456905561
H        -1.08089548038718    4.73408037759502   -0.41448922300509
C        -3.13400542498309    4.43635343812148   -1.21522613868992
H        -3.27225928821918    5.16878032914555   -1.98229412676427
C        -4.05028994633397    3.46514561958154   -0.77921526585189
H        -5.04571465900754    3.27874693808635   -1.12823900431843
B        -1.34984881854500    2.64044970625274    1.41988060743169
H         0.69009188918434   -0.04224492242626    8.30729990650343

