95
CSD_code = GUGBOB | q = 1 | S = 0 | Stoichiometry = C40H45MnN9(1+) | MND = 5
Mn       14.73953325307237   11.04710724540521   15.35576618707026
N        17.14373877803035   11.86420383233775   14.40489882680990
N        14.67772551328503   13.61628055482321   13.54935383270891
N        12.72934525732303   12.77634025623550   13.88660209405577
N        15.82918262392993    9.57532267310104   12.86184415708705
N        15.00750080951890    8.09372777411136   14.16635274064514
N        17.06339150691121    9.96279459324323   17.00026295704017
N        15.37849326301378   10.28840161737477   18.29119570433260
N        13.35286191289386   10.52052737117035   15.74987094667649
N        14.99768201531085   13.69452896600522   16.81868228388561
C        17.07024398466055   13.32973342536793   14.34975617262641
H        18.05975180656667   13.74399824389735   14.09150872700552
H        16.79485189938492   13.70147997306401   15.33951541015508
C        16.08334091279670   13.89493728977748   13.33320816972065
H        16.19591877718538   14.98259436360412   13.37511171972361
H        16.35658158531415   13.58316163163092   12.31589650402933
C        14.04934244700029   12.50273397533970   14.02838054226400
C        13.75535913197662   14.54593636053024   13.12895963787703
H        14.04516487699737   15.49130114924210   12.72005276247279
C        12.53492739829430   14.01606609040701   13.34038325288969
H        11.55628690179121   14.40662455899859   13.15232619031096
C        17.51753662649449   11.32268639233782   13.09105634230343
H        18.20399724645728   10.47999960420928   13.22165891461211
H        18.05075585557830   12.07824567973126   12.49868560300871
C        16.30649085222111   10.81062690178625   12.30220681191133
H        15.49173807692803   11.53872021666815   12.31301231610870
H        16.60124754437809   10.62728049084135   11.26606612968154
C        15.20805998809644    9.43006176998451   14.06274310833667
C        16.01593133468542    8.36610158644470   12.24427346574815
H        16.49178509158558    8.27540829222255   11.28987186293751
C        15.48908140743847    7.43357765828645   13.06451667994801
H        15.41198298274514    6.37072124042676   12.96398309107077
C        18.14541777920340   11.48217774125070   15.40708042709484
H        18.04210391394612   12.14124534698014   16.27453924163961
H        19.16120875229263   11.62068200888453   15.00693076580708
C        17.96797438013056   10.03224323449878   15.88176221562129
H        17.59003557154884    9.40986169984388   15.06391743672592
H        18.93079020118605    9.62880790574095   16.20297665926410
C        15.76569537694860   10.36233648628846   16.99646282754036
C        17.46367783587714    9.62176125513486   18.26792361176326
H        18.45463416896948    9.27878268599010   18.48441873054440
C        16.39774973371856    9.81866013344520   19.07447255189057
H        16.27991243792531    9.66546502237121   20.12771027067069
C        11.60286802335993   11.94138540923383   14.15753747134427
C        11.16979033134587   11.08240455986423   13.14565182152846
C        10.00042630222373   10.36251205305903   13.34236772229007
H         9.64827515841139    9.70183392437009   12.56476134694963
C         9.28648036517816   10.49225584370887   14.51958044861078
H         8.37656332070118    9.92939430034500   14.66054715699225
C         9.73004184238604   11.34717959222437   15.51100534819429
H         9.16779646189226   11.44739499373203   16.42638939528950
C        10.88551389095657   12.09912826029828   15.34498730894850
C        11.95918050528388   10.94601001742188   11.87746026921032
H        12.01247987108229   11.89749349870028   11.34797560161350
H        11.50029865916906   10.21319940030644   11.22029889611432
H        12.97561997079135   10.62418373474839   12.10569900160266
C        11.34857948202888   13.03781761351276   16.41169039511871
H        12.27352730008130   12.65840973005858   16.84974662601291
H        10.60445261463773   13.12083664214166   17.19764790436969
H        11.54945118372929   14.02947764064620   16.01017111571269
C        14.35639169789600    7.31797416268638   15.17371948382414
C        15.11858403134195    6.58221329437330   16.07937964907401
C        14.45910321328778    5.72477737929493   16.95331987905427
H        15.04006649292675    5.15332128082349   17.66149327858398
C        13.08744421455615    5.57705118555083   16.90322163862481
H        12.59489387699144    4.89276940183760   17.57621839434704
C        12.34891531033838    6.29232011807174   15.97780019315808
H        11.27905653644725    6.16453637636280   15.92512267806282
C        12.96828967908968    7.16787162849679   15.09914902749911
C        16.61596637920371    6.65967816765754   16.13887821453814
H        16.92580945170631    7.23705701174391   17.00956697489544
H        17.04106298305634    7.11331172879690   15.24708876031432
H        17.03376975959529    5.66035391132526   16.24309281047129
C        12.18100762782091    7.93971514261029   14.09273043172839
H        12.29694394179794    9.00633749150327   14.29286360914834
H        11.12785318345396    7.68605267976779   14.15483771787486
H        12.53036820442420    7.73798579995831   13.08060115497274
C        14.17254480448220   10.78930750496725   18.87873511331231
C        14.21758454316294   12.00465375229597   19.56740565788160
C        13.03455362885930   12.48506768588688   20.11827224107457
H        13.04934144193507   13.43215365258722   20.63546405041497
C        11.85746221171763   11.77096249420643   20.01870328596212
H        10.95005797263481   12.16602792734979   20.44908802580979
C        11.85155406473693   10.53460401781802   19.39972123338958
H        10.94390350620188    9.95288571688131   19.35778435779655
C        13.00908730572401   10.02006983850765   18.83686130013068
C        15.46778985894641   12.81335430023464   19.73161739660688
H        15.42552189923330   13.37809167249275   20.65926999892828
H        15.54553119268566   13.52461686529050   18.90836633867940
H        16.36547952736055   12.19918176665918   19.73991220577019
C        13.02680728871884    8.65853049514939   18.22506486963359
H        13.24173702632518    8.74757575892369   17.16103678976320
H        12.06590709662018    8.17038064809850   18.34956445688130
H        13.79729880078038    8.03743189174654   18.68021367115491
C        14.78743414907536   12.66130473663313   16.35371939711320

