55
CSD_code = GUGBUF | q = 1 | S = 0 | Stoichiometry = C20H28N5NiO(1+) | MND = 6
Ni      -11.39338520708698    8.71928095569097   -4.82904474901175
N       -12.53741521520080    9.91927956014017   -5.89567300874443
N       -11.53323225566258   10.09709126764937   -3.35438888580155
H       -12.51388724420580   10.16214965362372   -3.08641827682787
H       -11.03354623531042    9.69145186746602   -2.56406483972982
N        -9.55247270324156    9.97273425108136   -5.69404688832910
H        -8.90568486008340    9.95360401635484   -4.90889231105342
H        -9.06763831474442    9.56401090655847   -6.48634686186030
N       -11.24530725800645    7.38582630322245   -6.14798584825393
N       -13.48385257696962    7.55970537466255   -4.34984752070212
H       -13.28002677173115    6.78427821447896   -3.72688967083328
H       -14.14976805666110    8.16283013895624   -3.87587379335733
O       -10.32624847252305    7.77599683569615   -3.64221690583333
C       -12.44596037114097   11.24891238014040   -5.72468595176475
C       -13.48926609418700   12.08592188420160   -6.10453868232971
H       -13.41923117636859   13.15147006014026   -5.98459800670047
C       -14.64287465895183   11.54360043506926   -6.63989884260465
H       -15.47442078797903   12.17768682292734   -6.90462227477051
C       -14.69894686106248   10.18154771752777   -6.85602913280900
H       -15.57715417419396    9.74710256877780   -7.29886640317743
C       -13.60883273864392    9.39284507893216   -6.50478605865852
C       -11.01138942150316   11.43062534527879   -3.65466048033814
H        -9.95113687387957   11.46511051362540   -3.39738562226500
H       -11.52590598482510   12.18548001759340   -3.04731534622962
C        -9.95314125090249   11.34194280179033   -5.99382076263878
H       -10.24197514894418   11.40091588844082   -7.04647976634628
H        -9.12654305683994   12.04802247476632   -5.83819455627158
C       -11.16180171273702   11.83232451339430   -5.14568632166554
C       -11.13243111368288   13.36519693880936   -5.20133510096305
H       -11.18440760602451   13.72025784945683   -6.22707480324611
H       -10.19856543440201   13.71936968074280   -4.77093167683942
H       -11.94176281600432   13.80738161981853   -4.62684833263289
C       -12.15358305215665    7.51630463565847   -7.25891063749494
H       -12.20790879650601    6.56874105824355   -7.80841960008282
H       -11.77689835854793    8.28404604416095   -7.94656765216559
C       -14.05215349885866    7.07444471827257   -5.60848477226431
H       -15.14814140925712    7.08691703774460   -5.58283024419613
H       -13.73365885109016    6.04305979837001   -5.77437971210459
C       -13.59017198088519    7.91138433928376   -6.83513662478074
C       -14.51135213623866    7.57343795982110   -8.01409322737507
H       -14.26623955583734    8.17983979659967   -8.88222077521660
H       -15.55817921896988    7.72012081805976   -7.76592035426820
H       -14.39097160954387    6.52692416164441   -8.28271698626344
C       -10.48983656828839    6.34147461324122   -6.09416768371162
H       -10.53136104447916    5.63071310161665   -6.92258564296403
C        -9.59196872309507    5.99557986227337   -5.05392633002669
C        -9.56917718034816    6.75979405159603   -3.85025106060325
C        -8.67353186002030    6.34563240889431   -2.83380328721599
H        -8.65680183334913    6.91580318059872   -1.91743743428219
C        -7.86136983330053    5.25662838740886   -3.00334654195335
H        -7.18818220630773    4.96715560315736   -2.21036220777498
C        -7.88958816116601    4.51250985301150   -4.18842337178199
H        -7.24127715685685    3.65902347472007   -4.30355214853348
C        -8.74673002621273    4.87759532207370   -5.19064268878737
H        -8.78140448498475    4.31271583653608   -6.11097333356555

