52
CSD_code = GUGDOB | q = 0 | S = 0 | Stoichiometry = C23H22MnN5S | MND = 5
Mn       -2.95293805460417    6.78238493538831    5.77314309691630
S        -5.48539916624049    4.94762850954937    9.12105156748663
N        -2.65971145622161    5.22433118462110    4.73016592733114
N        -1.23942742044678    6.39620127971567    6.48562517915263
N        -2.80989796266565    8.60187792654678    6.28548893348681
N        -4.22667407176720    7.43232611554974    4.52603273213805
N        -4.01837670004150    6.11606947527824    7.09098741413004
C        -1.89858716725732    2.96607725377822    5.44718387774651
C        -1.14394070213163    2.22693629588025    6.34809266510288
C        -0.37389554801727    2.86247750627425    7.30074127058713
C        -0.34426383573353    4.24877206234648    7.36973965889833
C        -0.28516450764563    7.24126525948566    6.86298721900937
C        -0.53502668385935    8.61189802774260    6.96449837870441
C        -1.72978526537899    9.27374326825575    6.67087212275178
C        -4.60189503251807   10.24652449398257    6.81113483473700
C        -5.90462260311157   10.66138831347545    6.56934967995594
C        -6.67235129954151   10.02891112896284    5.61278088461541
C        -6.15218787370402    8.96947226416552    4.88147979886359
C        -4.46501785019437    7.01591830143326    3.28603243897864
C        -3.90374799258822    5.83204418361307    2.80231651448363
C        -3.02628181535884    4.97904539142737    3.47658965171961
C        -1.85281760197754    4.35246393767084    5.47709638188597
C        -1.06246332025524    5.00455829348957    6.45425987314739
C        -4.05302666477742    9.21402309055352    6.06445548750696
C        -4.84089646425117    8.56387713860153    5.08436776031756
C         1.14695581579559    6.81518218348177    7.07619367272663
C        -1.66998015606754   10.78186706952129    6.69210693513156
C        -5.23233796703018    7.83922159011839    2.28010265302875
C        -2.43156836264305    3.86231957331458    2.65362042595656
C        -4.64128994703991    5.60533877697947    7.96338025131413
H        -2.56899145224631    2.45294760704491    4.77801520787459
H        -1.19184209103279    1.14894011508765    6.31930459935188
H         0.18409643565985    2.28460810994906    8.02181259622267
H         0.18220013614596    4.72355232603738    8.18093100570551
H         0.30450938513270    9.23450520891005    7.23673712189181
H        -4.05214371563906   10.68629648778657    7.62672909141208
H        -6.32363448301527   11.46178340016246    7.16013900060570
H        -7.69554372127904   10.33208010006026    5.45018880731232
H        -6.79780040101421    8.42675850868348    4.21118019453562
H        -4.11940261043331    5.58337834138137    1.77366202658383
H         1.37479430104268    5.90030720641646    6.53448977042838
H         1.34685874732281    6.65517525793283    8.13529083098642
H         1.81481264846315    7.60240377044157    6.73200873829305
H        -2.41216806013282   11.21884102406361    6.02842614940012
H        -1.83552701313631   11.15940979327478    7.70060404009833
H        -0.68150473875069   11.11004285276941    6.37698387610339
H        -5.21924605892490    8.89557477966727    2.53743382001870
H        -6.26763577663769    7.50536352081958    2.21829878776456
H        -4.78821230819438    7.71311342806767    1.29463543066178
H        -3.08896432893491    2.99343113980748    2.65119172889524
H        -2.32015898705750    4.19166951303406    1.62245197094113
H        -1.45737823006546    3.56367267739979    3.03330791710320

