30
CSD_code = GUGPON | q = 0 | S = 0 | Stoichiometry = C12H11Cl2N3OPd | MND = 4
Pd       -0.37760670858940    8.96354618893837    3.10241787782194
Cl       -1.22718435539036    7.29807233349689    1.90336227189546
Cl       -1.92975170291274   10.37403496675699    2.39878427287674
O         2.91146140013228   11.11754105592799    1.48088366325578
N         1.09980824278146    7.75425144213237    3.71159059690694
N         0.50732326673902   10.47187257245984    4.15983071291633
N         2.41788424348253    9.62155735354387    3.10953372658230
C         2.62177871375420    9.98783117967923    1.76463206519060
C         2.37237952696137    8.87598269590500    0.78614920899908
H         1.30453727071046    8.60233690520944    0.85149847817106
H         2.96795828516369    7.99366714872020    1.00670282013037
H         2.58752647993512    9.22836840202625   -0.21873042318396
C         2.31835998820714    8.27040792278403    3.52625123024782
C         3.47468406857059    7.53397046039148    3.74136797728840
H         4.43770846196973    7.98956033499304    3.57366363699867
C         3.35264201551864    6.21706094054320    4.15837818302935
H         4.23256460359593    5.61668411844379    4.32814490863140
C         2.08312882107143    5.69070642424902    4.35265898021067
H         1.94896423469844    4.67124803695630    4.67495912620961
C         0.97946266085450    6.49102991514913    4.11743283992458
H        -0.03252290053481    6.12181721951566    4.22937519713907
C         1.81508451650581   10.61423015682771    3.92951045084723
C         2.54088777863483   11.70223109850840    4.38331974027383
H         3.58598938330568   11.79060877335358    4.13845192998381
C         1.87282556739436   12.67156352685966    5.11716565094751
H         2.40180666139784   13.54178991010370    5.47314285035358
C         0.52085793320889   12.50717491641287    5.37783200016986
H        -0.02921905607049   13.24080337033341    5.94422401518527
C        -0.13043851742122   11.39198979787546    4.87829718069115
H        -1.19260088367202   11.23256083190338    5.02176883030657

