89
CSD_code = GUGRUW | q = 0 | S = 0 | Stoichiometry = C34H48MoN2O4 | MND = 6
Mo        6.74921597316330    8.08151636064954    0.24553776115483
N         4.64883097599989    8.10814053626232    0.24125497074507
N         8.71605543512724    8.16457194928432    0.94199855655872
O         6.99769644320117    9.08446873848032   -1.03474047198453
O         6.87695851874330    6.53557572231314   -0.30397426592451
O         6.38446060497319    7.29622081032415    2.16420901928328
O         6.46172612211290    9.68321236455075    1.51027456551471
C         6.55657615990714    6.04198142378914    4.17974458120138
H         5.47279824515805    6.11752217351041    4.13766898058589
H         6.91268716236137    6.45148807169920    5.12249263454615
H         6.84392989368960    4.99362262135232    4.13396621673400
C         7.16932316816295    6.78903047187714    3.01162017810645
C         8.55515283999469    6.88822054980532    2.96049173900942
H         9.11527124952103    6.42015593629456    3.75558605309105
C         9.27882180840272    7.56199158879124    1.96952919503758
C        10.77946990704305    7.58469973412515    2.11069729441699
H        11.15720853392596    8.60126565983760    2.02109750721861
H        11.22885947285618    7.00041561510032    1.30946231207619
H        11.08636236539807    7.16794551900184    3.06554978991486
C         9.58455913810399    8.80604527463881    0.00922614607076
C         9.92286640860365   10.15441889919556    0.18782650167792
C        10.79172563359721   10.75617556125586   -0.71300133964799
H        11.05074186202541   11.79673123277832   -0.58921966158627
C        11.32829309392812   10.04603619386968   -1.76769772675227
H        12.00581137556626   10.52688698959893   -2.45786052490904
C        10.98206185735721    8.72101021686588   -1.94182623272045
H        11.39050729349854    8.17519105680487   -2.77823339350651
C        10.11875669460766    8.07764005689304   -1.06406259643977
C         9.74132990537297    6.63782778632980   -1.32890451396152
H         9.13060521862939    6.26386088638589   -0.49971774681325
C         8.86962507397296    6.58565433087347   -2.58789051879943
H         7.97825037315619    7.19196554138530   -2.42056182053743
H         8.55754108813415    5.56266719605765   -2.78258865069794
H         9.40949214066171    6.96393825078887   -3.45334287948572
C        10.96737194314560    5.73253031743159   -1.47803516001907
H        11.62435866486008    5.81058595051702   -0.61332978051376
H        11.54213549639120    5.98959574528330   -2.36426243401745
H        10.64791242951792    4.69731649311496   -1.57150115369115
C         9.31992191991327   10.98326934873264    1.29925818049796
H         8.73511276414927   10.32491187795219    1.95081420006851
C        10.38363487417836   11.67779033661348    2.15299776545580
H        11.07824117507955   10.95430901366596    2.57632341065709
H         9.91011121675918   12.21514867450712    2.97254506056928
H        10.95391324031207   12.39363241682907    1.56660085285012
C         8.36198382937525   12.00329187159669    0.67799659090110
H         7.61178706317420   11.47503211548087    0.09102967205424
H         8.89778801778026   12.68706098580864    0.02347501353291
H         7.86552758846795   12.58299916653598    1.45362771081964
C         5.73170019217088   11.13720178818865    3.25001665717349
H         6.76151192657836   11.06831037881279    3.59291038149491
H         5.05381647347273   11.01753271328787    4.09043535925596
H         5.57805805019010   12.12660281367260    2.82075448276171
C         5.47203098323242   10.08920095975808    2.18673204665828
C         4.16756486636991    9.66850187028042    1.97838191118644
H         3.38568374513042   10.10604337985880    2.58022503092169
C         3.78376770675523    8.74526165666795    0.99226882674393
C         2.29780019526039    8.53135655469801    0.84055120207384
H         2.06963160880506    7.88020232477625    0.00112960784188
H         1.80284033112449    9.49029538966544    0.69809773323495
H         1.90338408258106    8.08690148264487    1.75335511133619
C         4.18270704099809    7.21607430304955   -0.76419511407434
C         4.01118516030318    7.68695657399936   -2.07374792400522
C         3.59405378966112    6.79331032547164   -3.05243922848435
H         3.45608218276602    7.13991401537816   -4.06514601771538
C         3.34482036916114    5.46923481917313   -2.75125519678141
H         3.02845645196507    4.78652470854909   -3.52618847366505
C         3.48992616811099    5.02343973309243   -1.45186883775327
H         3.27957101373307    3.99025602801304   -1.22076317936681
C         3.89691637221680    5.88095889489384   -0.43934648841611
C         4.02101906838153    5.35755203467914    0.97412025749702
H         4.31647088181754    6.18327586471427    1.62952154973736
C         2.68787514769308    4.79459909468126    1.47616758954218
H         1.89546310691101    5.53534276050030    1.39288651680044
H         2.77663151181173    4.49975296537039    2.52011767047442
H         2.39492993254558    3.91913529741521    0.90197428552032
C         5.12069185593947    4.29589544337118    1.04428914767647
H         6.05124952842517    4.73068054494101    0.68268088724510
H         4.87382981550373    3.43578788297293    0.42644582210420
H         5.25692288427610    3.95852288705672    2.07010007288066
C         4.21407808590630    9.14356156778655   -2.42940581244660
H         4.62063323674504    9.66994426837963   -1.55693269335245
C         2.87424638888827    9.78269664256807   -2.81013605946958
H         2.15093598053964    9.67796378769584   -2.00425738719691
H         2.46333236135779    9.31140979720483   -3.70008872548320
H         3.01036077004653   10.84222503005192   -3.01528897046856
C         5.23323099337497    9.29784022431324   -3.55918302997102
H         6.19150863140052    8.90943905953039   -3.22038832690752
H         5.35518108495795   10.35056379756768   -3.80470545552677
H         4.92442776272971    8.76646070046848   -4.45567681742742

