65
CSD_code = GUGSEH | q = 0 | S = 0 | Stoichiometry = C26H32MoN2O4 | MND = 6
Mo        0.41154664314442    2.97936812833129   12.24521711209366
O        -0.57686502780525    4.26030636460729   11.92353753729133
O         1.47784273085668    2.87429316964342   10.99084663627647
O         1.34643065597737    1.34250582626164   13.17385145793127
O        -0.65649089234132    2.60055716880667   14.01486273513204
N        -0.86956034340605    1.48660669722479   11.59645830450357
N         1.65819210761915    3.96539932775024   13.57329350032606
C         1.75222279529871   -0.62408939122603   14.44116680947290
H         2.50489040365389   -1.17580036162433   13.87960850712905
H         1.14254998204893   -1.33226752061083   14.99383869631108
H         2.26599715164907    0.04151426880986   15.13122404779076
C         0.91529513981932    0.19256405583752   13.47795688009104
C        -0.23478557183880   -0.37551208560782   12.94627138943357
H        -0.48707780236664   -1.38177086904685   13.24371315101680
C        -1.04188230767010    0.24293559809849   11.97891699586446
C        -2.12672300436128   -0.58792231319758   11.34105883016306
H        -3.08688533036451   -0.07925998461408   11.40445852313608
H        -2.20304839138136   -1.56027776026641   11.81935481172101
H        -1.90991944025688   -0.73216495774043   10.28338682999943
C        -1.67942543615034    1.98259096319504   10.54006033675230
C        -2.90464718473926    2.59455448121411   10.83173289709240
C        -3.68506006159578    3.05804870388221    9.78279819542100
H        -4.62914814253548    3.53641406753548    9.99995907726186
C        -3.26556221767497    2.92342854251124    8.47147788535783
H        -3.88370394874867    3.29113881928545    7.66598195657741
C        -2.05006197159957    2.32697210133299    8.19512880796661
H        -1.71583425064961    2.23310462736429    7.17213978488811
C        -1.24275231015874    1.84352690866803    9.21725769593175
C         0.08336429724988    1.21685450503488    8.92098476590408
H         0.86358015935649    1.80130946441779    9.42254786026839
H         0.27555361144206    1.20784341392987    7.85127951030577
H         0.14132268759678    0.19536831380253    9.29848511388868
C        -3.32935881156422    2.79690912563953   12.25341909056905
H        -4.34771803958966    3.17538277735103   12.30302352058013
H        -2.65329321960591    3.52552397957048   12.70690118645902
H        -3.26045410676652    1.87755810627396   12.83473316731378
C        -1.22910098176335    1.95732371437813   16.22791424780366
H        -1.95593225702763    2.69149527714753   16.57294101205291
H        -0.68385371042926    1.57857776383062   17.08703214175689
H        -1.76982476982514    1.14679872324976   15.74438096381753
C        -0.29815986730118    2.61240753033254   15.22818641557070
C         0.85480824044500    3.22921219032833   15.69553246316193
H         1.04108620459008    3.21634673148777   16.75847481811437
C         1.74794928087951    3.94401917668986   14.88254691063538
C         2.83087984557603    4.73985488929781   15.56660964233325
H         3.80949999557466    4.47254145756344   15.17204396056191
H         2.81834113492866    4.57071683995128   16.63955793607251
H         2.68806828393618    5.80255382896375   15.37553892880809
C         2.55458709386449    4.79824883077143   12.85183593091785
C         2.19512200775721    6.12482720189148   12.58560576050880
C         3.08559562631202    6.92818811765417   11.88428452222032
H         2.81170127954131    7.95002223015506   11.66550068686574
C         4.30737351132580    6.43686987648879   11.46537536207010
H         4.99038947586349    7.07438497716277   10.92388839059220
C         4.65034994649528    5.12346014974731   11.73186698613399
H         5.59985234613887    4.73522871913303   11.39270642969572
C         3.78607326954628    4.28762710060372   12.42365063832826
C         4.12998652220323    2.84872585380989   12.65546938854811
H         5.16256308338819    2.64801002601932   12.37964027457144
H         3.46810935677227    2.24016722211776   12.03488522215607
H         3.97218937303350    2.55312124862034   13.69243034236078
C         0.86263650826531    6.64852856314769   13.02075304193419
H         0.73312653616870    6.57684975687911   14.10124118406384
H         0.08050209259482    6.04042357044734   12.55127186113825
H         0.73835001856129    7.68545416974883   12.71960092898146

