65
CSD_code = GUHGUN | q = -1 | S = 0 | Stoichiometry = C14H29B18CoNO2(1-) | MND = 10
Co        6.10597188946648    4.83390305914724    4.11568064751711
C         6.16955003080688    2.76909402437595    3.44958663948062
H         5.41071499495391    2.20703596162448    3.98066663221951
C         7.50091355589980    3.03376097182771    4.18539479901305
B         5.75480070468812    3.90537292636253    2.32136621675770
H         4.62397882258834    4.00931157483304    2.00470223364582
B         6.39962677994631    2.32921554703347    1.79995034458863
H         5.65008438750495    1.55467544081041    1.31433345065436
B         7.52471711037647    1.77047420205489    2.99822831970632
H         7.55856062226103    0.66055506575208    3.40507924202635
B         8.13562815219717    4.46349932414473    3.63936666354929
H         8.83655327355160    5.09495201532716    4.36096222793158
B         7.08127026965401    5.07873069715909    2.34126174210745
H         7.05063994395443    6.18279371400184    1.92870551060088
B         7.02903463108840    3.81295681793545    1.08564747199016
H         6.83090948347463    4.10120237940739   -0.04426431746485
B         8.13474583493272    2.49242000898329    1.51610708427116
H         8.71933808493488    1.84636065599437    0.71626988845114
B         8.84642425853917    2.90914731092271    3.07544888229272
H         9.89831771849477    2.55192985105534    3.47548547994532
B         8.56087803502689    4.17992469415629    1.92515572317661
H         9.46172472537576    4.74275891057360    1.40199970865171
C         6.27642666757391    5.97599091723335    5.87448900240844
H         7.24281051973863    5.75178049728617    6.30641256948918
C         5.18058582347841    4.90001552850928    6.01732261244073
H         5.47347719589999    3.99784245694269    6.54125703500349
B         6.11647525921371    6.87135009477492    4.50467047204432
H         7.05973252304004    7.41459289169415    4.05190429095808
B         5.65669225305272    7.54711100098059    6.10265809119110
H         6.35690683358294    8.37438558433399    6.57788210615691
B         5.07764629196619    6.23763236618115    7.09675461330996
H         5.39325708451395    6.05868054643099    8.22266002566077
B         4.12623159720376    4.91841496860353    4.76068935850742
H         3.55785462441267    3.91879202051636    4.46327008238430
B         4.64843541626042    6.25776800255825    3.72126089321587
H         4.37547184339342    6.39559589524236    2.58395919234709
B         4.57445958944826    7.72715261353340    4.72468533504754
H         4.36509153742783    8.78005491374863    4.22572616855808
B         3.91734209355103    7.32211881211990    6.33540486011150
H         3.25916506235079    8.07567060818920    6.96908604318497
B         3.64468144834475    5.57339600258291    6.35537231222948
H         2.88343501121893    4.95074913017097    7.01672193482880
B         3.30412176737515    6.47744356765244    4.88608696594798
H         2.19947735667882    6.64362039885255    4.49188333850588
C         7.71445062977022    2.47193688169301    5.60623983476501
C         6.81284509764028    1.30566215074281    5.96742680319020
C         5.44364647536166    1.21421784921111    6.12693824154982
H         4.79716998156767    2.07428820613181    6.05297924172725
C         4.88897331884638   -0.02587700413615    6.42376405962931
H         3.81888533899481   -0.10371995278440    6.55156767763537
C         5.67932229568188   -1.15790664493685    6.56062143254627
H         5.21707867009510   -2.11002981450357    6.77943599205447
C         7.05578176640650   -1.06760502005211    6.44170635155452
H         7.69696887745528   -1.92571745445761    6.57399649512483
C         7.60801992939305    0.16757640593717    6.15179778509566
C         9.02747463360925    0.56762229793194    6.13728252847519
C         9.92983586709258    2.86423902190525    6.32164378950041
H        10.34826856137128    3.49227276832453    5.53127632705762
H        10.72612603947796    2.37228843619847    6.88013878261868
C         8.95476028302068    3.65821346456469    7.20418465926566
H         8.92016078895444    3.24267845620278    8.22225045578775
H         9.19899263947959    4.72244454764272    7.26024499302388
N         9.04239582028806    1.88191009505564    5.76353101559288
O         7.68935185092541    3.51459418140576    6.59860842208017
O        10.00643002512475   -0.08542284369924    6.44637321708057

