84
CSD_code = GUHRIL | q = 0 | S = 0 | Stoichiometry = C31H47N3Si2Ti | MND = 8
Ti       -0.44106513517166    2.38464595796627   13.64791875750683
N         1.54247879683258    1.99628407309380   13.93745496526598
N         0.57867957352087    2.19484380027168   11.91262167651564
N        -1.21266287962947    0.88439810228531   13.78669946786903
Si        2.65379702950054    1.23133634178885   15.03029693290106
Si        0.35216215941829    1.73184279066524   10.25550657412673
C         1.66064671828884    1.96530772673643   12.62520314520069
C         2.95879767915634    1.69660911343583   11.96206211001748
C         3.32910783420743    0.39427202942488   11.65003412301052
C         4.53292322470935    0.15117140235571   11.01285130227403
C         5.37320930995370    1.20320075321399   10.68601769456407
C         5.00773956131064    2.50157018982391   10.99901015374702
C         3.80363881649165    2.74916551532397   11.63420355498664
C         2.36021905649401    1.90757298887457   16.79288872623291
C         2.25591053268149   -0.64444760112897   14.96627880651071
C         4.51604872245153    1.53727740889278   14.68946135974685
C        -1.31420949894451    2.49994242950509    9.72398272576011
C         0.24598776397109   -0.18244801226003   10.18627248453909
C         1.69739653327444    2.35126176930629    9.03898705061447
C        -2.04948729540234   -0.06339448227239   14.20601424171756
C        -2.02841056813162   -0.50983934634500   15.55797692105754
C        -2.90223928557068   -1.49220809436631   15.97842486443378
C        -3.81736347079547   -2.06368092527714   15.10825329974459
C        -3.85822875760133   -1.63258844769943   13.79218124264651
C        -3.00171765758254   -0.65283017677716   13.32974025875026
C        -1.05172955151943    0.11254320429551   16.51609837946326
C        -3.06907366788349   -0.18766909190243   11.90230535742523
C        -2.04052777244118    3.55326781795133   14.77163721770890
C        -0.78220118142238    3.98748477838818   15.27413926557823
C        -0.08202248032426    4.61476075609400   14.20705254990617
C        -0.90302165169501    4.58827708664630   13.05429567827706
C        -2.11267647715623    3.91535950862572   13.39322137232096
C        -3.19275649865729    3.00505960456869   15.56682393337656
C        -0.41381297170581    4.07072009333794   16.72948847152398
C         1.24885505915843    5.30332701616223   14.32869174521573
C        -0.58902795179893    5.29315474730848   11.76355020108426
C        -3.38393005519151    3.81082048282788   12.59424029980509
H         2.66908910248724   -0.41763420589574   11.91418908635392
H         4.81854982964292   -0.86230549922848   10.77106999706590
H         6.31247904335112    1.01097211081707   10.18887154888227
H         5.66252871461239    3.32262778589289   10.74630027526299
H         3.51419381503616    3.76125783789871   11.87950425966461
H         2.95964465147210    1.33730474661134   17.49508126382354
H         2.66036632578258    2.94670998377190   16.88951690261224
H         1.32495305147970    1.82168242597582   17.10180806136206
H         2.30516617204067   -1.10332688538779   15.94826813447302
H         1.24812418962035   -0.78881942873487   14.57622502752440
H         2.94719690323921   -1.18263831413304   14.32431934514120
H         5.09629856287449    1.28817146303679   15.57222427036694
H         4.71676105538993    2.57767604929239   14.45080675339405
H         4.89452590338704    0.93768821236928   13.86872082960995
H        -1.79804736755325    1.87612175025877    8.97993279900428
H        -1.18912367846508    3.48426749504211    9.28395788591775
H        -1.98418342494398    2.58718182520315   10.57472856585503
H        -0.50830334678912   -0.51651419015557    9.48133906163893
H        -0.01958659919002   -0.57179613666485   11.16799454782035
H         1.18939941224706   -0.62928080790082    9.88676597568810
H         1.33839375209432    2.26826992317012    8.01834966897354
H         1.95325753041643    3.39267153776943    9.21113600860578
H         2.61317460051520    1.77413123857567    9.11306119493817
H        -2.86933823137758   -1.81619578540589   17.01055029924390
H        -4.49364529515944   -2.83166823318143   15.45322807855750
H        -4.57521562792375   -2.06636637850252   13.10731627621610
H        -1.56700765694660    0.47341475366387   17.40693458278184
H        -0.54536201283267    0.94611481444846   16.00875277031522
H        -0.30557605668924   -0.61624029098592   16.83426791350963
H        -4.06540481643539    0.18830499138447   11.66641520279584
H        -2.33216200701765    0.60602985629742   11.75188622590300
H        -2.85383559219256   -1.00867299900414   11.21851728657140
H        -3.60823806324081    2.11422331928458   15.09266640958747
H        -3.98667295460527    3.75374902260044   15.64019996521056
H        -2.88074676159800    2.74195446684494   16.57520550649106
H         0.65053374558754    4.25535382982742   16.85473991371040
H        -0.95470286448919    4.90100407442886   17.19448670183786
H        -0.67835780151929    3.16150345057016   17.26989943617554
H         1.62909829194630    5.58603124333408   13.34776951765360
H         1.15732974147734    6.21282332103943   14.92979640404452
H         1.98836888378856    4.65658445670586   14.80725921711895
H        -1.46220223107356    5.31836931862120   11.11461011037230
H        -0.29306789152315    6.32550169135536   11.96444667912235
H         0.22329278829313    4.80511262732673   11.21832742113281
H        -3.25570231968708    4.17960521041024   11.57812455582945
H        -4.16605918707591    4.40938140834389   13.07033113726144
H        -3.73591784123996    2.77779160186572   12.55381001314372

