57
CSD_code = GUHRUW | q = 0 | S = 0 | Stoichiometry = C27H20Cl2N2O4PRe | MND = 6
Re        1.47594952165246   12.40252990993376    2.55238611986832
P         2.71900710703570   12.89318976697886    4.60988435277171
Cl        0.86251075005629   10.45836997972694    3.54397008389462
Cl        1.12923164393386   11.40054205658279    0.54002289657160
O         0.18307481428920   13.38308518778742    2.90463529814136
O         3.50130193268299   11.77472671189849    2.23606381333673
O         7.84533063660180   14.89723552890767   -0.78871470012300
O         6.43017046088297   16.49614427524850   -0.57988235407988
N         2.41457337937934   13.98238597213787    1.40593153499161
N         6.75559477394547   15.32633489855714   -0.45336797463350
C         4.25770309426912   12.53825337764496    1.53919783138562
C         5.58961045371888   12.25238660638457    1.21964530422733
C         6.34507613643773   13.18142514220845    0.54101910634523
C         5.84273924032580   14.41814354702518    0.14608899632219
C         4.47811202255481   14.74339849053315    0.38093450907369
C         3.79586377998557   15.90404804618831   -0.04017496591235
C         2.46679622905571   16.05664279904600    0.27025739498594
C         1.80332449225282   15.07994103784728    1.01324331426557
C         3.70609721378333   13.78709265120517    1.08169173689006
C         3.97351235480329   14.14105698010007    4.22549730919221
C         5.32490693070486   13.82684159528607    4.14053087429872
C         6.22453498946889   14.77664769202976    3.68628668236491
C         5.78151299396930   16.03433010204697    3.31261824588211
C         4.43429868731851   16.35386309664473    3.40443513064105
C         3.53073303551425   15.41079602267123    3.85345011113457
C         3.59512145835618   11.56162570341483    5.48033481838079
C         3.89007209112818   10.34597452405245    4.87351593500490
C         4.58441130119848    9.37739743121413    5.57746361278537
C         4.98686827076901    9.61413634179280    6.88096662108512
C         4.69365098642166   10.82580751271436    7.48703445635144
C         3.99814095991092   11.79825401286782    6.79367323954647
C         1.65962582556639   13.64117869181560    5.88026492043143
C         0.37913090418213   13.12066155859060    6.04469795593267
C        -0.45103929742531   13.63328769119077    7.02449606141611
C        -0.01070492124305   14.66502872568138    7.83870348399627
C         1.26154928872313   15.18731986783818    7.67226975024081
C         2.10033236655051   14.67883506052357    6.69638349188982
H         6.01166363960729   11.30981819416345    1.52815857800807
H         7.38015786505239   12.97016169267198    0.31415783055099
H         4.32126517248899   16.66059665457046   -0.60010647784293
H         1.92451915830430   16.93111869536835   -0.05126474463903
H         0.76500269589965   15.17996440909783    1.29715511877879
H         5.66558783354896   12.84096217160461    4.42441663083544
H         7.27295328147884   14.52949491472486    3.61455232319487
H         6.48282681861772   16.76668777261835    2.94319565726865
H         4.09141139989699   17.33517759563534    3.11320748356625
H         2.47336400670429   15.63651813758452    3.91212933141204
H         3.57427365756917   10.15575777717070    3.85992629831084
H         4.80735154423777    8.43251006035316    5.10544558160260
H         5.52573418175682    8.85481546351463    7.42759733773243
H         5.00391261651865   11.01211733162872    8.50444848970938
H         3.76288516159105   12.73876809402371    7.27128149988039
H         0.04111528097850   12.32559021509477    5.39308059231940
H        -1.44462813613069   13.23125599388307    7.14994734897785
H        -0.66125099020491   15.06741053343143    8.60060529506594
H         1.60270481503969   15.99513598627389    8.30275422825948
H         3.09042408847468   15.09351971038478    6.56275659791047

