45
CSD_code = GUHSUX | q = 0 | S = 0 | Stoichiometry = C19H15N4O6Re | MND = 6
Re        2.45557676951769    6.39286315410214   12.12464256680212
O         1.93386437782997    4.86539033642961   11.68387402128298
O         3.66973633771650    8.09996707263797   12.25067412607147
O         6.26005687146887   11.06150021063667    7.53959558815011
O         5.61935113332069    9.34424734333563    6.42822825092444
O         2.06703123345580    6.69684635794264   14.06166637468771
O         1.00901483292135    7.56098031194488   11.54726263894951
N         3.13897038054813    6.72128110186251   10.13111587972671
N         5.70050509658561    9.97968282393686    7.46802464781982
N         4.26317553397814    5.58922884610423   13.09874560521870
N         6.12619201461257    5.35042967874543   17.58437449083140
C         2.82645640119862    5.97946717614939    9.08324761802925
C         3.23459224676134    6.32553576873629    7.79616498458764
C         3.99282406230544    7.45209376454212    7.58530071118429
C         4.35835552580804    8.25560472270087    8.68579269899358
C         5.13692461969134    9.44850294453249    8.65736011580355
C         5.38181951562331   10.14822755059741    9.83841053610625
C         4.91572918754400    9.73541831016042   11.06451797552458
C         4.14304949923871    8.56891412562387   11.16362406519979
C         3.87608735122524    7.83667685604627    9.95035220841664
C         5.32530452862561    5.03883060419755   12.56293737921292
C         6.42479784071908    4.64715747965606   13.33394931457913
C         6.39831266742916    4.83795290460082   14.69452751869301
C         5.26746987223478    5.40872861272453   15.30322995408421
C         5.11245243198027    5.65065507311664   16.69685366322398
C         3.94987244420763    6.26300482242710   17.13776121591248
C         2.91950107768748    6.63224846847317   16.28071076412728
C         3.01041516361307    6.39183725120853   14.91477288589704
C         4.20317147488151    5.78238532471946   14.43409669948137
C        -0.10828958071419    7.72486425860872   12.34685619807358
H         5.86485487239976    5.36462668434059   18.55705113553320
H         6.75028889336591    4.60082552521818   17.33744778310091
H         2.23659489376192    5.09625655754416    9.28196663395809
H         2.94515509814213    5.69992930032076    6.96719014706642
H         4.31032735590002    7.72707612238578    6.59281131326654
H         5.97157021044572   11.05065637257686    9.76468454892299
H         5.12755543836351   10.30112343430619   11.95744392899933
H         5.31481271086182    4.90051970304939   11.49104028957436
H         7.28221239421901    4.20775259658989   12.85042440202425
H         7.25688704888924    4.56081558793865   15.28842733643274
H         3.83907882314614    6.45767509127661   18.19494629600939
H         2.02882993938580    7.09632332973324   16.67365470437554
H        -0.72554681915218    8.52469091930932   11.92173767850094
H         0.16984730624049    7.99209791487027   13.37372773485383
H        -0.69198907798566    6.79610760403898   12.38037536978715

