38
CSD_code = GUHSEH | q = 0 | S = 0 | Stoichiometry = C16H12N3O5ReS | MND = 6
Re       10.48401402547659    9.12967056335770    8.97827567184037
S         9.92590227149794   11.35350247303659    9.66017925598550
O         8.94299908340961    8.51720547296637    9.06855357931898
O        11.63027376677815    7.80398711708708    7.94607023332398
O        12.39614193126279    9.81212860201252    9.39920677676433
O        14.16373562984644    7.10994772384087   14.76551318922811
O        15.90795476808338    8.20079958484172   14.16573589249773
N        10.54411878264097   10.02754925566413    7.10912742431678
N        10.96657739781717    8.26846245847597   10.86690799405769
N        14.75425144383445    7.84523132388005   13.98982838362595
C        11.15335857494819    9.32523712921092    6.15063651168879
C        11.33434987327346    9.85970169878494    4.88263388236599
C        10.88034959840882   11.14399101373158    4.63154754589166
C        10.23844244832019   11.85209081368452    5.63648119123043
C        10.07410104435043   11.25887833936440    6.88116292205883
C        11.60230353517359    7.95509090201712    6.58489772688393
C         9.35497738417629   11.91686976531906    8.00551784427522
C        10.17308490077425    7.49123767547422   11.58236132098171
C        10.60305662758878    6.91279868608290   12.77575569666138
C        11.87541485414200    7.13917022510270   13.24133832849674
C        12.74621158121220    7.96788792378546   12.50239818061560
C        12.21962586726576    8.50774592519398   11.30403854163484
C        14.08856182899795    8.31635798413398   12.82803390695425
C        14.81226328478130    9.16007370075867   11.98518334631400
C        14.29502142100473    9.68945562092138   10.82665898807129
C        12.98246327663040    9.37948727630548   10.44237880337993
H        11.82975655593017    9.27949804854453    4.12111012641233
H        11.02680277416236   11.59295529413154    3.66107266382070
H         9.86674983223455   12.84927335638425    5.46521771845903
H        10.90334436386540    7.22543743572220    6.12863144374760
H        12.60545567578334    7.74784165761835    6.17476695522502
H         8.29420675859776   11.65470712837188    7.95260923754724
H         9.45715312124367   13.00088106751867    7.97297590368126
H         9.17605771002866    7.33221596158597   11.19567190234314
H         9.92310448123184    6.28500348545395   13.32871844093816
H        12.21524227057364    6.69365275395863   14.16204132375139
H        15.82566449842487    9.39631685914343   12.27657979043724
H        14.88540675622793   10.34125769653309   10.20328135517148

