65
CSD_code = GUHYEN | q = 0 | S = 0 | Stoichiometry = C18H38Cl2N4Si2Zr | MND = 6
Zr      -10.50819015416796    1.46401885726771   12.07017533326355
Cl       -8.27621346378066    1.27674571225547   11.20367481050530
Cl      -11.40540899435281    0.99125645275606    9.95362984136527
Si      -13.96484615688215    1.46780481002021   12.89696854724772
Si       -9.61631284177696    4.56193890209468   11.02863375879793
N       -12.28037092634918    1.79074180278540   13.10304907473406
N       -10.38032367946671    3.48197360424555   12.13626032825542
N       -10.38495774929895   -0.91961571407570   12.34774523530667
N        -9.36657313513483    1.09860440421784   14.18468631580943
C       -11.98361417068466    2.95076902941595   13.83379111998460
C       -10.98094452286613    3.83270112582096   13.32764479257599
C       -10.65534533804587    4.97644329590863   14.05611716999522
H        -9.89344069960590    5.63541314110235   13.66759216679796
C       -11.29459472726077    5.27660025504388   15.24900975326260
H       -11.02612793250260    6.17174599519842   15.79037046179462
C       -12.27349801098319    4.43098249669730   15.73561092287956
H       -12.78156577742572    4.65738186547661   16.66154576701958
C       -12.61148298478728    3.28450769065860   15.03026583241063
H       -13.37076643052751    2.62393945859498   15.41834075994048
C       -14.42874679794667    0.37975386627322   11.39396597096492
H       -14.47862368095002   -0.67484935027864   11.64233177621740
H       -13.76067459672455    0.50501978800760   10.55090600818493
H       -15.42000750623937    0.66959115939791   11.06236698489940
C       -14.69926587533586    0.51404332923296   14.41530349281074
H       -15.19412605446906    1.19419413409552   15.10123641460196
H       -13.94645626147127   -0.02628597255238   14.98638938352449
H       -15.44368998950259   -0.20709035032541   14.09286606202355
C       -14.95447226192046    3.09244083791835   12.67615995400316
H       -14.71606486224441    3.80852456480370   13.45615427933143
H       -16.02574434151675    2.91823379409041   12.69869948989196
H       -14.71270359133950    3.55742218088034   11.72398261818114
C       -10.46547794123578    6.28125077870486   10.99320983151643
H       -11.46536764379855    6.23018319214906   11.41294910634395
H       -10.54966143796188    6.65411285873416    9.97814183975605
H        -9.90667010330359    7.01506825866672   11.56386963647267
C        -7.74852199162413    4.81934155958608   11.42865227093690
H        -7.59237027420881    5.19975242398124   12.43492095094469
H        -7.30774263280695    5.53100777959835   10.73807668048906
H        -7.19480313178963    3.88948345431784   11.33610990557496
C        -9.79400138157682    3.78907017594124    9.28841518519266
H       -10.83884426629312    3.63119686933280    9.02667087102841
H        -9.28209197485777    2.83213877447501    9.21295478294862
H        -9.36257261173431    4.44359079571277    8.53727794437460
C        -9.73495621929754   -1.28030607620982   13.61778902717193
H        -9.22669606305580   -2.25275587361649   13.53552003400100
H       -10.49578235021037   -1.37253153503474   14.39914396501171
C        -8.71518207171254   -0.21127492182330   14.01680032881039
H        -8.21159675852484   -0.51535985294874   14.95017087673502
H        -7.96052567188787   -0.11752104022887   13.22813187053741
C        -9.65810806056956   -1.52908060062715   11.22307135021405
H        -8.60688683778630   -1.24274068113730   11.24756985936887
H       -10.08504357210792   -1.17367611466882   10.28221930021781
H        -9.73407457197262   -2.62491774985787   11.26253879711674
C       -11.76277400892107   -1.42098995383571   12.31722329482636
H       -12.20007354809658   -1.18323257290454   11.34633667704507
H       -12.35876155445523   -0.93864255579092   13.09472894219842
H       -11.78939660618306   -2.51185581681867   12.45951683885149
C       -10.16910911344628    1.09136798954847   15.41457966429217
H       -11.08472335429705    0.51402594320636   15.28157858389436
H       -10.46132841436827    2.10837866109714   15.67105685940044
H        -9.59381315356884    0.67464246773500   16.25402855263964
C        -8.33222699649585    2.13555286789321   14.32098352916926
H        -8.80730644604226    3.11197447909781   14.43309001829453
H        -7.70419982959019    2.15245284387643   13.42842452167783
H        -7.70195589066422    1.94364200481654   15.20067367636139

