97
CSD_code = GUJNOP | q = 0 | S = 0 | Stoichiometry = C46H44MoP4S2 | MND = 6
Mo        1.56874944685533    3.25055400239495    4.43571900933975
S         2.14353800025189    0.91642096316534    4.63997838951742
S        -0.05353499233047    2.52421025645339    6.02566039953075
P         2.05260580807096    2.96891570936167    2.12460696830098
P        -0.07148264787333    4.51881036261644    3.35668434460905
P         1.61274421919498    5.38559964149691    5.39132195133742
P         3.88633070566627    3.66444733682292    4.67541497467107
C         0.39970101258710    2.78914798677739    1.32032747485263
C        -0.33632215159316    4.09050070838061    1.56895060584236
C         0.23339636507677    6.30463170931992    3.29244448347120
C        -0.30783428922584    7.19863020798867    2.38069292805463
C         0.07099074751422    8.53065138120894    2.43437592258881
C         0.95742423743912    8.96788291604333    3.40608704585234
C         1.46681423640046    8.08492584026084    4.34589880178447
C         1.11144531728607    6.74441818897097    4.28394201264737
C         3.26504614338954    5.90335364815585    6.01874146099162
C         4.30267768543224    5.43067411256654    5.02110201063461
C         2.66902243925215    4.30370107746040    1.04388140040699
C         2.90355327178732    5.54506555507384    1.61267062095473
C         3.27313719793094    6.62658592018335    0.83385638601915
C         3.41328945347408    6.46609548166732   -0.53386677288043
C         3.17745772081863    5.22811661103655   -1.11327225143690
C         2.79992538146734    4.15045225278126   -0.33443784605064
C         2.87428358641743    1.51341293446978    1.39986531831813
C         4.12489998324358    1.59456937337958    0.79802600693268
C         4.71915368935779    0.46209768080214    0.27065669341948
C         4.07814834486973   -0.76230487957730    0.34619089889762
C         2.83691164934637   -0.85361377642455    0.95543993461018
C         2.23824548560944    0.27504772938561    1.48140048271068
C        -1.79376477761586    4.45968147777455    3.93570704096017
C        -2.39837900419692    3.20310040653255    3.89857601401234
C        -3.68587056191926    3.03550376296756    4.36586075027608
C        -4.37842018546682    4.12042316526970    4.88292533073237
C        -3.78228077070322    5.36868341643676    4.92334122830939
C        -2.49231822563020    5.54351464501629    4.45109306062149
C         0.62473025604495    5.79117191663745    6.86495952830409
C        -0.36579742071843    6.76607111381670    6.90206229549849
C        -1.11764565185299    6.94632944224899    8.05012955311135
C        -0.89009699677816    6.15979126379279    9.16586863316652
C         0.09889292028826    5.18868920509835    9.13727709127480
C         0.84821217507114    5.00188524908939    7.99301235525966
C         5.23490616491568    3.16868341209427    3.56111790057134
C         5.70276943722097    1.85694082231748    3.63877318867497
C         6.72177899373266    1.42605798129248    2.81207096195129
C         7.28919752819427    2.29930143371735    1.89781602989033
C         6.81804039430689    3.59839616739054    1.80154264618093
C         5.79095744243704    4.03218539457208    2.62139611630455
C         4.52950805246772    2.98650598680098    6.24566360694171
C         3.66818388332050    2.44150597206367    7.18853195452691
C         4.15426132857216    2.00101304798866    8.40799743407461
C         5.50399105600323    2.10266487014476    8.69479015503822
C         6.37039581600052    2.64475566333668    7.75758111007697
C         5.88892418049226    3.08762620400078    6.54117315922876
H         0.49534893944358    2.56019221128216    0.25355578646188
H        -0.11112075009394    1.95941786433111    1.82383016517875
H        -1.40540602879273    4.01118574993711    1.34369765602142
H         0.10360227813187    4.88775888812443    0.95830477514541
H        -1.01883552228746    6.86127078122958    1.63877535651874
H        -0.32911379997372    9.23216742127711    1.71678164059869
H         1.24621747429488   10.00870043176003    3.43967333922497
H         2.12757869887152    8.44857089259675    5.12062440810820
H         3.30715172500815    6.98197195706503    6.20163161666181
H         3.40275379094796    5.38503826252990    6.97672462210759
H         5.32106253723452    5.49574784291133    5.42047290741488
H         4.24412004745838    6.02302949623520    4.10489109504825
H         2.77419685715323    5.63778630677931    2.68539578205480
H         3.44482438204008    7.59122442325617    1.29122284102296
H         3.70234170410142    7.30394211392736   -1.15147500780881
H         3.28399682090595    5.10540992242229   -2.18165708833256
H         2.61400044806184    3.18940942209330   -0.79474248274591
H         4.63100885527643    2.54681655983339    0.73652922902846
H         5.68910451729034    0.54002593352232   -0.19900805101394
H         4.54540865623161   -1.64514230692086   -0.06506220646069
H         2.33621750194656   -1.80815923798746    1.02532967557298
H         1.28291346863581    0.19133486083201    1.98225548780068
H        -1.83403164258972    2.35558865686132    3.52303531480763
H        -4.14821259226723    2.05964010896659    4.33923327403612
H        -5.38289178251468    3.98968938592085    5.25797674258983
H        -4.32177771382543    6.21348930080980    5.32721327333371
H        -2.03434806035602    6.52196522310860    4.47780410862540
H        -0.54495813453558    7.39344789750430    6.04040625135365
H        -1.88691556018453    7.70517209031678    8.07038417098221
H        -1.48423665941591    6.30077875682928   10.05681843949281
H         0.27743236684165    4.57072266518164   10.00501618791072
H         1.60287738450714    4.22559767930109    7.95776059689045
H         5.27703402071998    1.18473582126850    4.37350166807750
H         7.08019317533541    0.40969513041118    2.88627649603052
H         8.09637424346048    1.96832002854166    1.26079994404541
H         7.25315156950279    4.28033366946647    1.08432684234069
H         5.42903997523679    5.04587036243065    2.52815671575790
H         2.61184603797109    2.33995911182948    6.96012082895676
H         3.47496315178257    1.57306809936954    9.13076664791802
H         5.88488273572768    1.75629973263174    9.64450624606806
H         7.42606875197774    2.72077511586538    7.97639903540728
H         6.57174962897982    3.49911345223393    5.80835087803464
H         3.20014360418682    0.73847324023485    3.86156507803493
H        -0.81765118424536    3.57318172124906    6.29380291066738

