54
CSD_code = GUJSUZ | q = 0 | S = 0 | Stoichiometry = C16H25CoN6O6 | MND = 6
Co        3.63672796482790   15.11308870186936    9.38842528357951
O         3.60906210021049   13.58728043981311    7.02928730245296
H         2.84505150521076   14.87154538180588    6.73971697299703
O         4.59438361742183   14.28090200017865   12.01161239772170
O         3.53437379297151   16.58504957085012   11.78719794213494
H         4.22983929379386   15.24367801996670   12.10324819848414
O         2.37088026600321   15.78935568071364    6.85275157409639
O         6.18332593864976   15.17459180845700    8.93797827376350
O         5.16337585059365   17.03744015735681    8.61187001186036
N         1.71404684551803   14.30521617773490   10.04201392894267
H         1.83412501483034   13.98045561596052   11.00185601308641
H         1.10355925864118   15.12072942170716   10.09959028231612
N         3.99926690878830   13.63767236472734    8.25232818017646
N         4.49364009556346   14.00868517951285   10.68313819169907
N         3.23966277208566   16.57933439494025   10.53663070932646
N         2.67513794295654   16.16472185360792    8.11915191382677
N         5.19251440760716   15.86746461574177    8.91798657888430
C         0.98943074900636   13.26787981161602    9.28567589140735
H         1.01194045253616   13.55547283452559    8.22905773035202
C         4.73009344261241   12.71303291829511    8.80121524941916
C         4.98525103169373   12.91554000385839   10.20583195357852
C         2.62184383581746   17.56216761455397    9.94752740910386
C         2.30022128304014   17.31839907462126    8.56169086829419
C         5.26716697207236   11.54279175471915    8.04607545765479
H         5.00607076419012   10.60608277220156    8.53272618832053
H         6.35213156621626   11.61478014419331    7.98199036318405
H         4.85261771838159   11.55752369726022    7.04097198175781
C         5.73372595567487   11.91893285010112   11.02009231260287
H         6.73542497434821   11.79804505920934   10.61247678287663
H         5.23095230079174   10.95388030045247   10.98812843028101
H         5.80196918338557   12.26184575925086   12.04892759850131
C         2.25839135641205   18.83021597590462   10.64925895648008
H         1.18082135915988   18.99015472884821   10.64409164776851
H         2.73577948097369   19.67850864562340   10.16266122726397
H         2.60644802669689   18.76775361199370   11.67801524690287
C         1.57977674984216   18.32554341225054    7.73277894007106
H         2.20860869006500   19.20605082498298    7.61274040664608
H         0.65309422698919   18.63239445356324    8.21396307757797
H         1.36402425783152   17.90699404340274    6.75346096404174
C        -0.47184553648591   13.18712815803242    9.74424444162310
H        -0.99800351676618   12.42412467578862    9.17691259778190
H        -0.97681390904937   14.13923531695617    9.58882468663262
H        -0.52772907803352   12.92595403657619   10.79964991988634
C         1.63412806572474   11.91137835777867    9.43659047502016
C         1.81717089083588   11.11035852946839    8.31695599009780
H         1.55911836845517   11.49316421223054    7.34117764602331
C         2.33798973021002    9.83486825942242    8.44094207244600
H         2.47408603771461    9.22346387723149    7.56155966451073
C         2.68731625304839    9.34497100758455    9.68802758043608
H         3.09410852784352    8.34923357736254    9.78682407914195
C         2.51228008603201   10.13813361502546   10.80882264278627
H         2.77861294427193    9.76288800540244   11.78625176767621
C         1.98306134333239   11.41061291406881   10.68479927367513
H         1.84166183945078   12.00098378069553   11.57957472282868

