54
CSD_code = GUJTIO | q = 0 | S = 0 | Stoichiometry = C16H25CoN6O6 | MND = 6
Co        7.73913357144964    1.79009944676846    8.15002660886645
N         6.84804358048392    3.16509852695718    7.25144533929345
O         5.58235325334348    3.10312798438779    6.99855125731915
H         5.04163706880078    1.80267874396435    7.51027589908137
C         7.61690951552340    4.14663025940484    6.88961599564686
C         7.10621447607239    5.36732101687028    6.19867726805139
H         6.03805642395498    5.25450515290362    6.03062554949433
H         7.61101276424582    5.51854021709794    5.24618936137046
H         7.27747057950606    6.24303447575041    6.82137030273624
N         9.25725693439927    2.80954356976173    7.78499661081641
O        10.44449768457843    2.37610545727072    8.05115251722405
C         9.01153148537655    3.93478928518073    7.18743654258320
C        10.08113514036816    4.90802978131565    6.81616838187334
H         9.88804993137664    5.86923159960918    7.28810390636610
H        10.11924942825061    5.05525620496481    5.73748805845989
H        11.03839805519599    4.52425834370516    7.16108725195023
N         8.62785507157580    0.32979773333964    9.08011192354565
O         9.93825972907188    0.29555364265153    9.37845449136560
H        10.32403099591319    1.14254935306689    8.88729233091457
C         7.83678218035592   -0.57990391986233    9.53103309638753
C         8.26976674858067   -1.68599532362222   10.42947387467286
H         9.35423487780424   -1.69313764326450   10.49698774947174
H         7.92013144032691   -2.64717512359637   10.06188123966608
H         7.85568935425542   -1.52079130721860   11.42346914640313
N         6.20338974428706    0.61805214700318    8.42216499390761
O         4.97126948682575    0.83588084333492    7.92144880544474
C         6.45106492645646   -0.44255695374672    9.10703362122064
C         5.42918044990547   -1.47259507929738    9.44614434600820
H         4.46422519809681   -1.17067719460108    9.04714080498420
H         5.35411077445235   -1.57569967869150   10.52666550768379
H         5.70986278651531   -2.43730149185970    9.02668259920940
N         8.00016040080085    0.88468514167272    6.17437964483453
H         7.13288378287121    0.41122244802968    5.92131096902522
H         8.07319067914677    1.68302633940437    5.54294175983617
C         9.13135045483610   -0.01269529717928    5.87956751385083
H        10.03498727579819    0.46159228375797    6.27796541368461
C         9.29743828146474   -0.19818478058685    4.36645881115816
H         8.40463221719984   -0.64761538592262    3.93488853300552
H        10.14052092209327   -0.85272144687571    4.16239194143689
H         9.48074960055340    0.75865716194079    3.88052451893106
C         8.95462960805739   -1.36191976490796    6.53327188548692
C         7.76425570282727   -2.06977689962396    6.41959387672603
H         6.92099762027549   -1.65396813290344    5.88543395635174
C         7.63853656644172   -3.32869428304075    6.97989281148208
H         6.70798571779072   -3.86869850384908    6.87897892205814
C         8.70378195172177   -3.89995605906731    7.65432461411231
H         8.60598489317843   -4.88457457399304    8.08741258914624
C         9.89548436503371   -3.20428267265179    7.76645865610300
H        10.73097275391490   -3.64304446441341    8.29053472046237
C        10.01913667035015   -1.94446349548353    7.20904059431131
H        10.94833387138026   -1.40361217592379    7.30525079277000
N         7.48160242264119    2.64576612653818    9.70186571996347
O         7.71110913677563    3.82998198351942    9.76554310087782
O         7.07467144749669    1.96202638201023   10.61707327236636

