54
CSD_code = GUJTAG | q = 0 | S = 0 | Stoichiometry = C16H25CoN6O6 | MND = 6
Co        1.92206643920423    1.55046676384111    5.09179331988966
O        -0.28238846798912    3.06176230026867    3.91344901855425
H        -0.66810419843628    2.17804744378184    4.28920288152573
O         4.66773246962412    2.10368668793889    4.87433985044644
O         4.11231954301210    0.08278849464773    6.31581280448234
H         4.52018126579923    0.87492625984358    5.79281735504335
O        -0.75961962773379    0.76130309601555    4.88834490914742
O         1.94435505376931    3.62673857306673    6.61392262584493
O         1.35142990637053    1.81128854313912    7.59972828363436
N         1.05270377067810    2.96516116537328    4.14350624465506
N         3.48133218928250    2.53238626493122    4.63478349457651
N         2.78781784751162    0.14105947677953    6.03089702190936
N         0.38602469126887    0.48424742348921    5.40349072195736
N         1.71503772710329    2.43906355697220    6.63220162996111
N         2.10262698819619    0.55387568619732    3.15100973662835
H         1.24209559577709    0.02755074374582    2.99768976768187
H         2.08962663028333    1.31267107863939    2.46903689574796
C         1.84937345208540    3.90062968761460    3.74407261894550
C         3.24594310632900    3.64272631868505    3.99746880108900
C         1.98575364677087   -0.74945587323911    6.50945093070358
C         0.60996639336296   -0.58386891103078    6.10955250723258
C         1.38551516185611    5.14122685189360    3.06232394221055
H         1.95952274600862    5.32519936053778    2.15669909311896
H         1.52486549685415    5.98807001248493    3.73297269565107
H         0.32894978473169    5.05489495299429    2.82164822586513
C         4.33174230698297    4.56763140396376    3.55142792671479
H         4.17636520147430    5.56068534927612    3.96820472147166
H         4.36011223037711    4.64758834226590    2.46496677109107
H         5.28391508827457    4.17637996958802    3.90356285512811
C         2.42194393627432   -1.85109062094784    7.40994614953140
H         3.50595772610923   -1.92284094926944    7.40233528796383
H         1.98664120720891   -2.79796185719960    7.10264643643146
H         2.09016865885194   -1.62779179011309    8.42338190973683
C        -0.45870713375579   -1.56568727692803    6.46267250699458
H        -1.40556159211510   -1.20583510090694    6.06614295746134
H        -0.53750404691079   -1.66391199545801    7.54337352152015
H        -0.23966356078678   -2.54491067773817    6.03899719301103
C         3.24803273101354   -0.31451382682530    2.82284094134752
H         4.15719305338284    0.20989411186845    3.13701263771773
C         3.16659644700359   -1.63448848349373    3.55093868114813
C         3.32038737764780   -0.56647401298235    1.31205132572384
H         2.41687120601953   -1.06302026295116    0.96214387538156
H         4.16950883372955   -1.20468631144016    1.08261201057920
H         3.43983596624029    0.37077208167772    0.77059024181172
C         4.28708552238779   -2.13357884154955    4.20186696330315
H         5.19433165854955   -1.54908481267550    4.22485327768092
C         4.24704908124739   -3.36672783462416    4.82738655023119
H         5.12487170372026   -3.74010097376822    5.33254523282093
C         3.08495712245736   -4.11833990621012    4.80821535924841
H         3.05176972832930   -5.08070751256903    5.29706490255837
C         1.96415072704104   -3.62995389520451    4.15894402788841
H         1.05479211573582   -4.21318663905288    4.13381119236551
C         2.00550221893109   -2.39780599133937    3.53126682964925
H         1.11992687285969   -2.04599764400176    3.01978233698539

