60
CSD_code = GUKBOF | q = 0 | S = 0 | Stoichiometry = C28H26Cl3PPdS | MND = 4
C         7.75400132369507    2.30523060933622    0.25531304426250
C         9.04308980043599    2.82301197669123    0.11995621919634
H         9.87574929263464    2.34013463675221    0.64909786519918
C         9.25558234720391    3.95211733328009   -0.64659026943863
H        10.25053994663540    4.35889978970316   -0.74866391285756
C         8.18347441548815    4.57351489241642   -1.27027185011347
H         8.34687336274544    5.46292447897685   -1.86049094950451
C         6.90205163551472    4.06960077346268   -1.12335087758188
H         6.06820339323095    4.56713647521366   -1.59651999824409
C         6.68075767182332    2.93491694759164   -0.36109975537357
H         5.67873995847192    2.55258180481029   -0.22971298740029
C         5.93237077330939    0.68575574128062    1.91892015710872
C         5.70571428958271    0.82304528416356    3.28451901299583
H         6.53898553315491    1.06144882500312    3.94112554167737
C         4.42888727920041    0.65940605745856    3.78943310608086
H         4.25166956412559    0.76583619413323    4.84911480195190
C         3.38014896229005    0.35648371463063    2.93629590310436
H         2.38299427107105    0.22786971541379    3.33065545383255
C         3.60678088703491    0.20740942386456    1.57708057552874
H         2.78921516333788   -0.04158543608635    0.91634014578482
C         4.88150442174416    0.36206730252385    1.06490692515498
H         5.06835652711530    0.21426755198953    0.00940750616745
C         7.70219081094482   -0.56572483522315    0.13381258688962
C         7.85679001993887   -0.38039326588735   -1.23384090714213
H         7.92794219631548    0.62237255405104   -1.63161819682737
C         7.91263510567583   -1.47137764144485   -2.08494121864674
H         8.02777975843144   -1.31555037192602   -3.14723514176831
C         7.81932717100433   -2.75588152743957   -1.57786203516793
H         7.86195665800493   -3.60561392642867   -2.24232704963269
C         7.67260162192782   -2.95487600821492   -0.21483517888742
H         7.60575504551461   -3.95474797302210    0.18811160258083
C         7.62033376048501   -1.87032272720998    0.64517485456450
C         7.46451959397299   -2.03041679154838    2.10689420596827
C         6.27027497732167   -2.46292782140688    2.67652247927133
C         6.08298169387856   -2.45318069959948    4.04896871165762
H         5.14853453908670   -2.79544371953276    4.46317845197249
C         7.08280999647740   -1.95307522787469    4.86629667950186
H         6.91838755650566   -1.88555813130367    5.93043974746244
C         8.28745950959640   -1.52322936539433    4.33289683849753
H         9.05036620397970   -1.10078629824196    4.97794011390767
C         8.49820178802096   -1.62306173061817    2.95947836613233
C        11.44736392094925   -2.06829959894970    2.95468804936409
C        11.41063521076828   -2.11601810169860    4.46862424476716
H        10.59895545068568   -2.74458352738453    4.82859289112163
H        11.32439732897428   -1.10854741402899    4.87471885934744
H        12.34821681517977   -2.54098279435101    4.82449663464483
C        12.66331807121641   -1.28911774856360    2.47112377299178
H        13.57754900213492   -1.78428970799003    2.79048647111032
H        12.64389109720595   -0.28509477496777    2.89455465659839
H        12.66963068725347   -1.21412920046979    1.38457576877461
C        11.37198317918164   -3.46064756372913    2.34393861382716
H        11.39804593767273   -3.40835464577007    1.25737475570632
H        10.45354828820149   -3.96278994523270    2.64386381512478
H        12.21681979894555   -4.05730562703451    2.68263347604344
P         7.63380953034094    0.83646242241384    1.31109779930790
S        10.02953737122430   -1.11976656980407    2.17325064409392
Cl        4.98039351040657   -2.97394699696411    1.64755505605372
Cl       10.86560715915098    1.30022458749952    4.44572063644560
Cl        8.33599172083655    2.97019318287820    3.38471138987758
Pd        9.25566709268965    0.97691543978739    2.88457189688678

