94
CSD_code = GUKCOF | q = 0 | S = 0 | Stoichiometry = C26H60ClN3P2SiTi | MND = 5
Ti        8.96698057294354    4.78269104257848    8.53695436587795
Cl       10.36900634102476    3.19539530782718    9.32925225730305
Si        6.98859300247399    6.56168486892325    9.27679328570558
P        11.08399275507134    5.90513573082707    7.76910363704178
P         7.00874698961948    8.44340888671743    4.42470913618520
N         7.87178508456485    5.39456150454246   10.11154070221083
N         8.28118339607433    6.86677593700803    8.03479849103629
N         8.35151609070250    3.96359712800138    7.20047686897987
C         7.44989272338984    4.60777240777629   11.25097614376124
C         8.65648509320758    4.39281565112223   12.18300595781112
H         9.45001213920421    3.86396587609564   11.65483216909591
H         8.36683079541112    3.80277547706563   13.04999556835725
H         9.03473986504863    5.35431534507720   12.52872828183380
C         6.94796937639227    3.24095851918812   10.75500688505537
H         7.73435427450534    2.76774891375956   10.15760158259350
H         6.06787417761599    3.38207624510003   10.12739201475634
H         6.69081432920358    2.59133470660180   11.58978133451266
C         6.33512824377260    5.29522614867119   12.05136415664943
H         6.66305330484362    6.27894499624344   12.37728558976979
H         6.07645175608196    4.70308955731518   12.92623993493267
H         5.44800891279356    5.41627978511653   11.43527378024807
C         5.38689882116321    5.97402455502278    8.38424773457677
H         4.64875791351904    5.68184753170499    9.12588964754767
H         5.60889583346821    5.09323346489137    7.78429423175183
H         4.91692546453443    6.71883847856402    7.74999578265578
C         6.55356754672105    8.23626600404484   10.11852497727077
H         5.64828788553735    8.13946655528328   10.70762978177341
H         6.38835877250837    9.03321491388973    9.39904441019176
H         7.34159862082764    8.56043460239115   10.79162184898894
C         9.27406871104050    7.83998273271981    8.44429362578945
H         9.45180554233941    7.68515027754875    9.51368017500013
H         8.90640455989374    8.87423656069981    8.33234368318860
C        10.61171851088957    7.70261890248434    7.69574292987596
H        11.36413972791130    8.34295338537651    8.16359441733287
H        10.50726609677695    8.01751423044523    6.65523066217397
C        12.02041386424391    5.59782429188810    6.18455171526847
H        12.78791594372946    6.36562617318110    6.02849709392014
C        12.65143230964130    4.21109418084046    6.30712593708207
H        13.03183439931397    3.87680570656290    5.34314567514971
H        11.89705971939897    3.49949817512803    6.65054172770200
H        13.47641073882606    4.20552159838596    7.01590799844268
C        11.01937436031142    5.61313692439238    5.03101610741917
H        11.47015416100709    5.19707769222304    4.13135708214960
H        10.68752395643141    6.62335501758041    4.79583878936509
H        10.15002312892767    5.00738787314614    5.30458726184335
C        12.41753077750063    5.88060428962603    9.08063407693819
H        12.69785535808909    4.82164602108019    9.15750970016000
C        11.77952188487147    6.28488322713311   10.41033135077483
H        12.43770022327066    6.02627939420402   11.23866010695501
H        10.83440812373044    5.75081167663003   10.55166009517228
H        11.59709968153932    7.35915123773884   10.45008506060833
C        13.66011186779855    6.71509145849845    8.78388008440123
H        14.35096529226576    6.64480684783455    9.62280587031357
H        13.41425717841958    7.76643995731543    8.64425730636452
H        14.17709050215248    6.36234478424474    7.89532155875892
C         7.86814115797458    6.99338300960300    6.64859052280825
H         7.22527163123082    6.13791804092444    6.43193069752211
H         8.74273731445454    6.89487613105923    5.99392863021659
C         7.15423166903560    8.30150826976207    6.28651148184683
H         7.75995257059437    9.14584042097951    6.62161294088434
H         6.17750324516120    8.36641119656329    6.76865723603713
C         5.16100404164714    8.13547574163116    4.23246620151612
H         4.61616409581061    8.68923880753505    5.00660814820562
C         4.68116175705545    8.57783179854758    2.85372335509759
H         3.64488674176155    8.27698082593036    2.70455363666399
H         5.28570799640973    8.11177489500508    2.07741431659536
H         4.73853897757970    9.65722886153471    2.73451988597675
C         4.90509677565023    6.64169949381970    4.41482095371938
H         3.84369345146051    6.42280002598296    4.30359285891122
H         5.22224053359892    6.30427830927992    5.39792031313632
H         5.45302254347086    6.07179022482016    3.66669108740276
C         7.08522540107558   10.31975578362198    4.22786648058524
H         6.79835151685530   10.49654351856942    3.18399710957975
C         6.17237763797997   11.14009860394917    5.13193708554336
H         6.30179149788194   12.20012616429983    4.91462207232602
H         6.40978535183231   10.98310451754453    6.18175305585911
H         5.12620688311414   10.89180743470734    4.97253536083919
C         8.54275937951661   10.75436523116798    4.37769642439653
H         8.65807124511123   11.80296192757740    4.10760305431385
H         9.18367180758202   10.15928434806413    3.72896585923546
H         8.88810485874345   10.63327033758070    5.40324530647086
C         7.93122537944801    2.86327082954777    6.42482279816618
C         7.05627523789900    1.91911498071474    7.28144983443686
H         7.65674248120036    1.52509954535454    8.10131303803436
H         6.68099070209062    1.09206262001485    6.68202393956380
H         6.21372274075249    2.47257274934132    7.69535214881730
C         7.11417282591012    3.33099222030489    5.19886525329017
H         6.18696665661894    3.79802200305793    5.52552273127548
H         6.87352668280452    2.48667253887573    4.55685388495606
H         7.68657630325199    4.06017467402817    4.62780161409815
C         9.16627643818470    2.06820584358006    5.93740464511047
H         9.80227162039931    1.85071264562643    6.79595561874776
H         9.73273716671543    2.65731421708435    5.21905786914599
H         8.86241897957754    1.13490845410650    5.46845189802892

