53
CSD_code = GUKDUN | q = 0 | S = 0 | Stoichiometry = C21H28CoN2P | MND = 4
Co        0.13818198022768    0.36963719339408    0.15204590575343
P         1.88356688711449    0.50557748086582   -1.12460693948805
N         0.77967104361199    1.91536364618236    0.87336436136306
N        -1.43551777896071    0.65278969405645    1.25972473194135
C         3.56761179655147   -0.48739746748686    0.77748028280689
H         4.29607508220764   -1.22822920175525    1.10375614512335
H         2.61788922798212   -0.68774069170459    1.27805090438621
H         3.91709264118882    0.49612806544582    1.08856592348428
C        -1.00880739363937    1.43229801816065    2.29290372830082
C         0.50877637262047    1.29308535246790   -3.33738176252124
H         0.30501508136985    1.23687115519520   -4.40555824339405
H         0.58708328192348    2.34285486822245   -3.06132128329970
H        -0.33455130178003    0.86212764059043   -2.79428349276840
C        -1.72775786599538    1.62805946603286    3.49104291899347
C        -3.23050891703455   -0.56037487613628    0.15838715581664
H        -2.59629876612748   -0.38597662252567   -0.70689601339082
H        -4.24063017970358   -0.20871082158909   -0.04465826287312
H        -3.27532856483220   -1.63174952854992    0.34608846437264
C         1.77858435670302    0.52310677882956   -2.98293511821220
H         2.65461233124457    1.03215476307000   -3.40313091560324
C         1.94220933820622    2.52879870509827    0.61251502333551
C         1.97982631497384    3.57038753065183    2.78638496972944
H         2.45093989441796    4.21874509484632    3.50928461628038
C         1.68859127620539   -0.90448261568061   -3.51104968746652
H         0.89225400239966   -1.43390780903198   -2.99220044856068
H         2.61867048675347   -1.44753007120228   -3.36144498206879
H         1.46464970527507   -0.90158362453304   -4.57713758499063
C         3.37257100549297   -0.54307014922776   -0.73596647055948
H         3.06710246827165   -1.56184247602140   -1.00292115512759
C        -2.98124030895847    1.00966896698906    3.58339360449101
H        -3.57347686916540    1.10708297421103    4.48156914051243
C         0.21429692658639    2.10693287833959    2.09092835259652
C         0.77025705441629    2.93166346299141    3.08882086027082
C         2.55831549345851    3.35271532481605    1.54286913033624
H         3.49131224029092    3.83508584602076    1.28830797523081
C         4.65706314605118   -0.20048176988626   -1.48264290433202
H         5.02578468627627    0.78527953621032   -1.20784102113707
H         4.51324946700106   -0.22684213648173   -2.55993942603395
H         5.43023075787440   -0.92414663393282   -1.22683850100727
C         2.49658318053360    2.22357581268874   -0.74511183339998
H         3.58195443633743    2.32581337919289   -0.78248481677076
H         2.06289824385421    2.90920863707936   -1.47924422910542
C        -3.44928541969784    0.31131889399411    2.49203089543602
H        -4.43120594507803   -0.13750873574981    2.51170650676244
C        -1.14201485894004    2.44253434125547    4.50032584612312
H        -1.68372644072865    2.56813467322058    5.42727299548169
C        -0.15479178558934   -1.55864471168766   -0.12817977547365
H         0.78883355063051   -2.11605955160601   -0.15232249085384
H        -0.66722601798800   -1.81065879861031   -1.06210475042992
H        -0.74635348109228   -2.00329466258437    0.67867930472576
C        -2.66421882566197    0.15591195246214    1.34084364764773
C         0.05475844232116    3.05829425631455    4.31379385616766
H         0.48172852061380    3.67522656708434    5.09176486139614

