95
CSD_code = GUKDIB | q = 0 | S = 0 | Stoichiometry = C42H48CoN2PSi | MND = 4
C         3.85657112546256    2.14784826618947    4.10546335744788
C         3.70502333772868    2.79017762252695    5.38407111761779
C         4.66487498417358    2.21767462012343    6.30527696412387
C         5.02957735705645    2.40408723704778    7.61996034622680
H         4.57129553538193    3.15789665701671    8.24269364277502
C         6.03696974250422    1.58862696492819    8.16672159403599
H         6.31204288812143    1.74734100741963    9.20026057461016
C         6.67695293633667    0.60850795538877    7.44927484628240
H         7.44343471619277    0.00428327637119    7.91240644148594
C         6.33539622198398    0.38554837499346    6.09468209759709
C         6.88759213165331   -0.57410874232129    5.21583435357312
H         7.66348657558878   -1.23632282628335    5.57225161330495
C         6.43909690308829   -0.66609698398067    3.92057100328770
H         6.87129927508645   -1.40908548171005    3.26535870975058
C         5.43312417024693    0.16797399479193    3.40104458350781
H         5.11312133918814    0.04841890220546    2.37696688646323
C         4.87607447609524    1.11700909631088    4.22755475039342
C         5.33931394199672    1.20542536001527    5.56549671129388
C         3.14092973150189    1.88797650988739    1.90628545071088
C         2.29919170816392    0.78208305852449    1.71677675535195
C         2.37740928423967    0.08418216532633    0.52103843202711
H         1.74737245703432   -0.77736327764479    0.36203695012464
C         3.25989568242740    0.46973765444249   -0.47070901791924
H         3.31277529460692   -0.08856662343065   -1.39405183160319
C         4.07703100010079    1.56715923688196   -0.27802676729411
H         4.76680091164849    1.85514805575453   -1.05646063865738
C         4.03375362143764    2.29216623979041    0.90399197410373
C         1.35559009070339    0.33971061855802    2.81242482348510
H         1.24509978940716    1.17231085012689    3.51668435265654
C         1.94451920456284   -0.85727015103123    3.56574148392643
H         1.25884030152101   -1.18414467051215    4.34508008743268
H         2.89365514689523   -0.59971684443073    4.02941901253317
H         2.11199248119221   -1.68856165111329    2.88337248179645
C        -0.03511285857810   -0.01308097360694    2.28440514340846
H        -0.42287350412262    0.79179928058732    1.66798495288684
H        -0.71492915123236   -0.16836682068625    3.11994691947805
H        -0.01516710418742   -0.92779019280297    1.69665147108881
C         4.96005607804411    3.46853367944839    1.11884158528877
H         4.59391422333697    4.03264427847309    1.98380917656417
C         6.37983826200883    2.98445597513818    1.42726129005362
H         6.39968766320517    2.39239237551508    2.33908508086737
H         7.04553753618829    3.83569617091827    1.55577036233290
H         6.75890348045733    2.37125968125650    0.61193558574005
C         4.98043015948464    4.41247491315126   -0.08526351019455
H         5.48426576934488    3.95874346819746   -0.93521809292921
H         5.51237968280968    5.32612749271864    0.17212909208537
H         3.96894677521312    4.67700413654430   -0.38395655864659
C         2.46833680308103    4.37374131675843    6.67412270996788
H         3.33955787569847    4.99549926666679    6.93002763938557
H         2.31317730939591    3.65864874683502    7.49335998608809
C         1.24098154910248    5.26094243831050    6.48221315708998
H         1.18926838035971    6.06547032953898    7.21943702422189
H         0.33624848163629    4.65225051711174    6.54424292935837
C         2.76442115534466    7.06416071343968    4.96908465322621
C         2.62884897190592    8.21555271019316    5.73811590704420
H         1.67325372452045    8.45520687525872    6.18532076050834
C         3.71158755808759    9.05630860885189    5.91876398255269
H         3.60454104867551    9.95170372000172    6.51403067948513
C         4.93372242792869    8.75329781659890    5.33833520314469
H         5.77621471309674    9.41365553065737    5.48303204911550
C         5.07353850793621    7.60772598598156    4.57237105688120
H         6.02558592102774    7.37242672116178    4.11940027138429
C         3.99053321168433    6.76707277678574    4.38777985149891
H         4.07398007039911    5.86665289439156    3.78715360116898
C        -0.00754285751385    7.01301179505192    4.54685857812497
C         0.12736450537866    8.07897694405401    3.66004893726239
H         1.07325292218850    8.23212563823865    3.15857068007591
C        -0.93182899651710    8.93494393859575    3.42601458628420
H        -0.81590952899600    9.76173277678957    2.74062571519944
C        -2.14486150349080    8.72739667286919    4.06345966210864
H        -2.97449956222960    9.39366677246585    3.87928295281358
C        -2.29318214654898    7.65853193756300    4.93133369017948
H        -3.24039536516373    7.49058551712234    5.42338053374718
C        -1.23313007818514    6.80168959918215    5.16892976432336
H        -1.36208969164911    5.96816702135570    5.84394539923290
C         1.68139646930205    4.82147915765923    1.95609012078305
H         1.76987133235950    5.91163295896959    1.90163689086815
H         2.32645520028420    4.42172089885408    1.17294111940432
C        -0.92639630429697    3.55186557059201    3.16131540274416
H        -0.15878502708576    3.13374544414784    3.81873277593185
H        -1.62795950304637    2.75794306786396    2.92464917909349
H        -1.46417649316344    4.31029601994722    3.72360445093616
C        -0.17946944972664    3.11346089144109    0.12356032889438
H         0.00071661497171    3.64385299826334   -0.80608840855484
H        -1.14917077904233    2.63220760413885    0.03876357617603
H         0.57764192782034    2.34139053533897    0.20631903037906
C        -1.22683369052582    5.81048233927842    1.10523088313626
H        -1.32024256281371    6.52697111774952    1.91456362712155
H        -2.22654454452826    5.47779254596070    0.84291575081623
H        -0.82179007798367    6.33613066174882    0.24646945167937
N         3.09367733756660    2.58218949344766    3.13121634921613
N         2.72230975316342    3.66319786724594    5.44242006619223
Si       -0.11684891560505    4.32917342958616    1.59944181311995
P         1.39837600144401    5.87707671724370    4.74265596483632
Co        2.08511592847806    4.08639516165958    3.73314402527974

