59
CSD_code = GUKGAW | q = 0 | S = 0 | Stoichiometry = C29H25AgClN3 | MND = 2
Ag       12.30239175259811   13.47760306565378    9.71633283434390
Cl       10.08618132591807   13.23402375373729    9.17075160720012
N        15.17047919107994   13.51066188567802   11.04425104709925
N        15.44868426559229   13.26768062558278    8.94362365542263
N        15.29043945079670   13.14293743835911    7.57937027653618
C        14.48482370669778   13.41901370124841    9.87613974471123
C        16.70312530288023   13.25118655476973    9.48350733116424
H        17.57923763597660   13.12978449766458    8.88349126003046
C        16.54775127646777   13.39468642212874   10.83529855856029
C        17.43265307398111   13.40899597305448   11.93698667312021
H        18.49085364758615   13.32650754274608   11.75017757749000
C        16.91604414488641   13.51135571381277   13.18867357850701
H        17.55804590113935   13.50944966780540   14.05506264866196
C        15.51693657169852   13.65129825225769   13.36987154217761
H        15.11782666181887   13.77564933044190   14.36361878993140
C        14.66185706826008   13.67553747607299   12.31027603875967
C        13.22048964944718   13.92175213076871   12.47708784342599
C        12.63259787336679   15.04373128660609   11.88275391744247
H        13.25201882289004   15.74416297389454   11.33754647038589
C        11.29129595493146   15.32129568670603   12.09971238852196
H        10.85112851878145   16.20612595261682   11.66496786863358
C        10.52092844512720   14.46751970302437   12.87255800488501
H         9.47218509698676   14.67378245002158   13.02063735244204
C        11.09668980395945   13.34990191394148   13.45252883186308
H        10.49726606052735   12.68297149115622   14.05377895876294
C        12.44293705807174   13.08227824314285   13.26736346892726
H        12.89574394669734   12.21395165407473   13.72441994148336
C        15.23255593661954   14.41377069713711    6.83496222065125
H        16.25409862121564   14.81240756425877    6.79423370003043
C        14.75350034180159   13.97138785477225    5.44344437091219
H        15.57833672687031   14.00061877065580    4.73326620628319
H        13.97813189595195   14.64086336847682    5.07695235894041
C        14.23383619577207   12.53246079274811    5.61138490876696
H        13.25290281828602   12.39023441270975    5.16387395012395
H        14.92310731534894   11.82161308847207    5.15649901825773
C        14.18594679418702   12.30498909165030    7.12600750467764
H        13.21420497803649   12.65559722659296    7.52980074218312
C        14.35300278064297   15.42871628748828    7.52997985387683
C        14.94777848285325   16.34519849140232    8.39206620828015
H        16.02482526393846   16.35494380874565    8.49891466605162
C        14.18388754347032   17.25021215010223    9.10602489898031
H        14.66744389196168   17.96010648763861    9.76214876529471
C        12.80445667205007   17.24669595019477    8.97779260688285
H        12.20800339469687   17.95860081819799    9.52924265159858
C        12.19610135943339   16.33400730534153    8.13216505996430
H        11.12368915511364   16.33421492541755    8.00851187776832
C        12.96409238065055   15.42657430979949    7.41382833806578
H        12.46710704253868   14.76204140250100    6.72192872967356
C        14.40539739020084   10.88567745354706    7.56863021096773
C        15.62179200274784   10.25693359914285    7.32945585918876
H        16.40591597181476   10.79613492324269    6.81849542559017
C        15.83182626261241    8.95739930233975    7.75224517014768
H        16.77976924130608    8.47530663333343    7.56213983643609
C        14.82841863606861    8.27415843680693    8.41916406428444
H        14.99168507942196    7.25814371010535    8.74710771705946
C        13.61822772611446    8.89842109875727    8.66889563465783
H        12.83493802484314    8.37227075349510    9.19339663245056
C        13.40820476825454   10.20066710527259    8.24901325263460
H        12.46110309700885   10.69138679269234    8.44833934882376

