86
CSD_code = GUKGOK | q = 0 | S = 0 | Stoichiometry = C38H43AgClN3 | MND = 2
Ag        9.15730902819799   27.88807225245194    3.71427031035590
Cl        9.23589941508930   29.97187946247982    4.58541657767787
N         9.77356338686740   24.88796685190005    2.85277567319909
N         7.87358367145884   25.56349635344169    2.15653849235002
N         6.80744132091319   26.41307365265333    2.00414130673863
C         8.94667385746627   25.96074651519405    2.86374973219454
C         7.99352081331661   24.28107973435636    1.69878959214257
H         7.24879064347237   23.78340215994138    1.11620211688011
C         9.21151691628206   23.83151758662472    2.13600316922415
C         9.92329994900412   22.61611824237297    2.01695847819044
H         9.47583121885744   21.80593332618261    1.46466224364101
C        11.14136763438251   22.51163000378136    2.60870722439579
H        11.70973241535351   21.59724268520295    2.54440961143044
C        11.69115923406736   23.61252347694029    3.31568263771238
H        12.66643956043245   23.52566238989317    3.76644871202505
C        11.01415113780036   24.78664149185159    3.42941844105861
C        11.55624238788276   25.97483371763803    4.12767009811161
C        11.32000055434517   26.15219385166776    5.49441500571135
C        11.87990941939204   27.25005392803746    6.13285156423811
H        11.70595887355223   27.39429467188942    7.18860220884365
C        12.64887175064077   28.17835864163553    5.44879000379720
C        12.86166915256743   27.98739163163719    4.09154660727445
H        13.45117025857825   28.70608583538197    3.54476332609289
C        12.32675291196519   26.90173257864738    3.41567690742463
C        10.46750033713697   25.17498323272346    6.27161593728624
H        10.01401741549626   24.46744982657554    5.56808362418859
C         9.33782796783438   25.90764632657256    6.99794189231559
H         8.60623782824575   25.19754370611862    7.37832470600228
H         8.84126717791379   26.59875157200483    6.31020629672843
H         9.71968078751864   26.48464566478932    7.83537909678004
C        11.32658445930346   24.37822468331258    7.25585802520619
H        12.09528877472911   23.82219745290221    6.72362335580073
H        10.71060303264968   23.67292147755796    7.80963629621009
H        11.81342037102375   25.04236564759215    7.96527975728305
C        13.22957311356508   29.36937617166569    6.16681745918328
H        12.86107492870053   29.35642537220221    7.19828256451564
C        14.75764520613329   29.28149800634301    6.20334254042246
H        15.16821007716015   29.29325576389128    5.19625923470318
H        15.07640541558386   28.36258390210247    6.69212288113242
H        15.16911733922175   30.12637220699287    6.75124288414364
C        12.76882715337136   30.67369870910625    5.51500806960080
H        13.05097253553790   31.52323920986364    6.13310705644929
H        11.68834390860511   30.67120902273129    5.39552031748460
H        13.22016977504649   30.80077865867473    4.53409371011331
C        12.55656740803208   26.75017197593822    1.92907878233236
H        12.04816909312705   25.84351204739768    1.58340626192036
C        14.04600284867305   26.60048256349189    1.61271231557385
H        14.59853408050882   27.48621802850549    1.91433687996105
H        14.18906928542817   26.45483403760466    0.54411644613050
H        14.46098070217920   25.74265479382965    2.13768893339980
C        11.95276361339267   27.94153253919977    1.18259711834646
H        10.91927601220361   28.09804711375532    1.50655399701294
H        11.95721678829011   27.76221557288920    0.10943061751830
H        12.51265520266946   28.85022892712367    1.38564829581748
C         6.20179325480860   26.49962474942517    0.68830388043799
H         5.85205427205968   25.52191773794722    0.31308223861045
C         4.99766988383959   27.39607564646197    0.99283824449920
H         5.34010744600713   28.42717530610662    1.07344401463549
H         4.23321864285046   27.33730519627298    0.22079329276587
C         4.50860575633104   26.89149269149808    2.35382928783495
H         4.05597745783448   27.69038485631084    2.93696429685411
H         3.76287577647895   26.10671750590403    2.22931038021053
C         5.76335730186556   26.34144148422059    3.04860385538801
H         6.08598941250018   27.01175515904272    3.85761298209086
C         7.17238142088132   27.09789738246031   -0.29415664442853
C         7.99287264308035   28.15171011028656    0.09106233763680
H         7.93762704325375   28.53081739441119    1.10683553537002
C         8.88267330562795   28.70809973447724   -0.80911416089037
H         9.51484239379199   29.52589043058815   -0.49836494892561
C         8.95912214544830   28.22084681911034   -2.10356284633345
H         9.65318673393126   28.65656738726473   -2.80697416467370
C         8.14356408126606   27.17305897957974   -2.49388174777733
H         8.19885147717849   26.78840101627486   -3.50170895430704
C         7.25604607965488   26.61279262362934   -1.59167555155024
H         6.62170017080605   25.79285479611750   -1.90014529343716
C         5.65406215373002   24.94056217297039    3.59872768160156
C         5.03036227134990   23.91373088940334    2.89895081232521
H         4.52709597567013   24.11580405697913    1.96393216002453
C         5.04742043281707   22.61789182264558    3.38404583260471
H         4.55378920149881   21.83261176995704    2.83011320761313
C         5.69987890576139   22.32596718254834    4.56889918958509
H         5.71700703011634   21.31321092612753    4.94283035770330
C         6.33082522456379   23.33921754969649    5.27009096033166
H         6.84472827671115   23.11874709280945    6.19402019433990
C         6.30733857304171   24.63477589582436    4.78753734325895
H         6.80441710403535   25.42435837837260    5.33315083231446

