40
CSD_code = GUKHOJ | q = 0 | S = 0 | Stoichiometry = C20H15AuClF2P | MND = 2
Au        0.55463791669486    5.06528722089547    9.71457566732992
Cl       -1.82628943714392    7.16103262109533   10.67529459117921
P         1.40961776087080    3.05342345015961    9.13879870256807
F         0.24261058780716    9.26083759580616   10.52468051166244
F         1.89043692569768    7.98919787088579    9.89143362245135
C        -0.15455233651981    6.90724727375094   10.21464875365041
C         0.58173122406715    8.00019697976476   10.22081862762433
C         0.67229643444408    1.62056157176638    9.97148809764409
C         0.59660488502739    1.69247762864817   11.36115510706830
H         0.98161694530948    2.56887858257941   11.86786938023427
C         0.03587783661579    0.65336211811506   12.07751141272984
H        -0.01855648607663    0.70740364367442   13.15444667432700
C        -0.46384276844225   -0.45476622641075   11.40979851172947
H        -0.90727460212628   -1.26560516143047   11.96815744371173
C        -0.40172440854826   -0.52137445169645   10.02780963388371
H        -0.79607443975524   -1.38294714683769    9.50950310349812
C         0.16362966804041    0.51359548744367    9.30288987364431
H         0.21129358586675    0.46254938606416    8.22397976062626
C         1.27590154139510    2.65325896607029    7.37414300852905
C         0.11388286396599    3.06193668903586    6.72460322855217
H        -0.64473705369998    3.59614382682482    7.28282965605897
C        -0.05890843541949    2.78944361695733    5.38067544102640
H        -0.96124244593067    3.10462377525620    4.87869340573404
C         0.93109349600583    2.11882895005584    4.67929781157253
H         0.80098056277007    1.91492913468856    3.62726722075826
C         2.09128516192256    1.71859997297383    5.32244107051946
H         2.86237741097080    1.19867205393812    4.77351746754113
C         2.26921860002923    1.98281709010149    6.66884471634008
H         3.17581498556531    1.67427593203462    7.17071251518671
C         3.18033025818015    2.88021272440459    9.48976104157384
C         3.76168116222251    1.68242058929745    9.89370780201540
H         3.14834421475833    0.80127762551485   10.02532176199030
C         5.12376637373655    1.62953536399653   10.12889560750362
H         5.57727123967651    0.70085821643275   10.44278760796530
C         5.90543958071906    2.76196227206709    9.96266043805507
H         6.96764912713440    2.71355418209256   10.15054721104491
C         5.32668536311877    3.95657099561897    9.56365901324685
H         5.93392965625336    4.84053102123813    9.44082618479832
C         3.96546108998316    4.01896700234696    9.33114750275978
H         3.49823595481493    4.94942155477958    9.03370081166458

