7
CSD_code = GUKHEZ | q = 0 | S = 0 | Stoichiometry = C2Cl2F2Hg | MND = 2
Cl       -1.10314444737691    1.69407597093908   -0.67732807451418
Cl        2.31861535163508    3.13879677879755    3.24919591310866
Hg        0.06935398240081    1.42003668403150    1.27307500651565
F         0.90225478405949   -0.43308899578492    3.90199105833079
F         2.31152420201437    0.75585096632899    5.04934181607658
C         1.42092800863820    1.67957325540780    3.05114555493079
C         1.55306811862895    0.72885534027992    3.96577872555156

