66
CSD_code = GUKKII | q = 0 | S = 0 | Stoichiometry = C21H38N2NiO2P2 | MND = 4
Ni       -2.02450065520306    8.63888193056578   13.34553416903310
P        -2.04723417064407   10.15262542365372   14.85215608554841
P        -2.35197476934582    7.01711606212667   11.99419170849854
N        -3.35658567422237    9.73548302262881   15.84274469509829
N        -3.83303158508822    6.36184624179213   12.49115554014417
O        -0.54642153681593    9.56065526193559   12.20360318800892
O         0.25461823218985    8.10674937223834   13.64874760562472
C        -3.58241995994037    7.99382825137826   14.21846074164299
C        -4.04987110010660    8.60714258651713   15.38641952182460
C        -5.17515850703646    8.11112948121581   16.04208876964437
C        -5.84139637752225    7.01716117462100   15.52473200121391
C        -5.41850351053319    6.41640132876222   14.35475752291551
C        -4.29153531702947    6.90518984005123   13.69672270206767
C        -3.92422117777472   10.55968143343375   16.88473330593236
C        -4.59687773930158    5.34043336240985   11.81512844473269
C        -2.43820619829442   11.87159740200562   14.25000918979950
C        -3.62416519190337   11.70607036262230   13.30326385662573
C        -1.23908723827560   12.46707991777047   13.52134665538389
C        -0.58353668097291   10.32399992716295   15.99311712629598
C        -0.39977186618657    8.97162794623118   16.67614711560440
C        -0.61896751010753   11.45873118786140   17.01296643451587
C        -2.59332595896319    7.37999972377829   10.18620212262241
C        -3.59776902317175    8.52650609983727   10.11954421733329
C        -1.26923359389611    7.78272349809951    9.54656825621432
C        -1.12814038494851    5.61015782456809   12.07697472621201
C        -1.10915656270894    5.15091432205077   13.53263996081481
C        -1.36363834052358    4.44071987742434   11.12665649335676
C         0.39520919609614    8.94821228600014   12.75684917730629
H        -5.53029451605479    8.56860559683156   16.95152129045329
H        -6.71028039438501    6.63116111995420   16.03766210664346
H        -5.96101081579312    5.56949758456528   13.96622363326187
H        -3.36578271342639   11.48895854361391   16.95592547138188
H        -4.96867501236115   10.80381418508158   16.66586315545126
H        -3.88382203238188   10.05400119149696   17.85480250214873
H        -4.14900355017621    5.13392263969887   10.84663618593047
H        -4.62628162450526    4.40914048255716   12.39088945115512
H        -5.62569231089380    5.67616816910319   11.65187026589564
H        -2.72439835883855   12.51407138346194   15.09122518433735
H        -4.49514285743858   11.32180059429002   13.83271521194182
H        -3.88971813823521   12.65220311120791   12.83429181545074
H        -3.35757219121580   10.98902474686061   12.52186475614175
H        -0.40947480151134   12.65022620813158   14.20126003647136
H        -0.90478236743258   11.78076535499754   12.74554067694953
H        -1.51285748979115   13.41211727679168   13.05332100912128
H         0.26159647980728   10.48537068818759   15.31256419665898
H        -0.30264616157014    8.19303740627245   15.92061229801008
H         0.49697323358773    8.97081083048020   17.29317621203837
H        -1.25804705686902    8.74097660289172   17.30570226397480
H        -0.87780975929110   12.41265405754977   16.55855770010226
H        -1.32547445931004   11.24218083326633   17.81020258404984
H         0.36678598053931   11.56202211885805   17.46569945759791
H        -3.00048152868113    6.50041391323930    9.67375623386784
H        -4.54301290475123    8.24206705469376   10.57992719260392
H        -3.19447587943585    9.38287014508770   10.66277587190000
H        -3.78544979072723    8.82511355238112    9.08939700830678
H        -0.55582571889772    6.96096151826059    9.55308142398524
H        -1.42769493986943    8.09066219508805    8.51356138806230
H        -0.83845457182504    8.61942540621143   10.09300275105092
H        -0.15997321706394    6.07051254348173   11.85017790553326
H        -0.91490596580802    6.00743801393955   14.17928024787250
H        -2.06778914156754    4.71537970767725   13.81227794034960
H        -0.32884139938023    4.40953708330136   13.69408979817717
H        -1.45761694881416    4.76618179620815   10.09289021323278
H        -0.51823647074069    3.75572744375389   11.18502497465876
H        -2.25697348742778    3.88755246944889   11.40497844449716
H         1.42404608475981    9.19556128231006   12.40388980666147

