63
CSD_code = GUKLIJ | q = 0 | S = 0 | Stoichiometry = C23H32FeN2O4Si | MND = 6
C         7.78931595709507    0.30602352833063    0.81231222402838
C         7.28986708905355   -0.48748206112548    1.86040167142856
C         5.97654083434236   -0.94320361351013    1.85664160339475
H         5.60879131487788   -1.55541327949405    2.66744631599970
C         5.14669498310547   -0.60073163394362    0.79797276195439
H         4.12612582720229   -0.95406834248675    0.79040319803482
C         5.60022394547716    0.18848912113710   -0.25004816139481
H         4.94151592616672    0.45076735686775   -1.06518903046636
C         6.91629963780073    0.63548067204493   -0.23912482435618
C         8.33464564587779   -0.69403425205139    2.82115328380399
C         9.54119224116982   -1.37846408658241    4.55490682076485
H         9.92408660844136   -2.40341770810517    4.54972177619178
H         9.44578107814077   -1.03851768325724    5.58723721772645
C        10.38703348722597   -0.43400567886986    3.66960078058539
H        11.27958905312274   -0.94190847966461    3.28722625907856
C         9.67762669304000    1.63942810505468    4.97097570773905
H         8.86150217973383    1.74078180786157    4.25866413026451
H        10.00288908364455    2.63610938678369    5.25785579007838
H         9.30421300120771    1.13903415875042    5.86191443501104
C        10.84082560149914    0.87649684954150    4.34261285820613
H        11.25037149871171    1.49114767181305    3.53252120989202
C        11.94062287930875    0.60437071434753    5.36439138312038
H        12.27830026801940    1.53853766998742    5.80566733073816
H        12.79237024386967    0.12120550353891    4.89178937973914
H        11.57930141679861   -0.03991719866895    6.16335544881945
C         7.60485818132905    1.48215285555585   -1.17106822777409
C         8.05618134998940    2.97412098201362   -2.75815214970883
H         7.71629172511242    4.01097827310069   -2.69449132001898
H         8.17756740116844    2.70228303646027   -3.80867012257472
C         9.32394197830646    2.71002821204932   -1.91056380682767
H         9.59617032976123    3.60649545371424   -1.33630687183912
C        10.31580042287072    1.12929375250427   -3.66297156914493
H         9.74493388542499    1.46472972814839   -4.52650675551000
H         9.78100090466652    0.32252181703820   -3.17138814036925
H        11.26152421708683    0.73638126534656   -4.02806555720589
C        10.57810642030902    2.27108832130695   -2.68555894732364
H        11.27618524917193    1.91414439469659   -1.92046720751726
C        11.19701490919286    3.46738384831139   -3.40473839627237
H        12.09947781242835    3.16157484890400   -3.92773202541968
H        11.46077184727808    4.25000768011477   -2.69739915864521
H        10.50215704010834    3.88098190952571   -4.13319054941519
C         9.15614074895789    2.44440509738917    1.57749768926484
C        11.30780300064628    1.27869943554750    0.75163671643056
C        11.63280162695528   -1.25330557883860   -1.11456312077201
H        11.69945473613235   -2.19429274386055   -1.65072881078978
H        12.44402381176866   -1.22804125291737   -0.39479703614698
H        11.80537254353405   -0.45458086680616   -1.82496244567521
C         9.97246411073559   -2.68040276200686    0.89287430163022
H         9.04581417437657   -2.82263714425816    1.43992796536883
H        10.78347368373845   -2.64116107197211    1.61254407466969
H        10.12649628939541   -3.56193759845968    0.27886044081737
C         8.63841768593035   -1.68787113636638   -1.54761308666107
H         9.07525713037261   -2.43420064340628   -2.20397704939936
H         8.26717415710747   -0.87975619641575   -2.16898745427314
H         7.77559814275040   -2.13565185211648   -1.06408957328990
Fe        9.58156800274890    0.91571924993200    0.82040929968551
N         9.48927696814448   -0.15957498141597    2.56303600390108
N         8.86725914608072    1.70494730653079   -0.96275593270208
O         8.24287829171731   -1.38550376982315    3.96239159809790
O         7.04621976456157    2.13811307528519   -2.19473898794675
O         8.85890568026653    3.47480804578179    1.98799438267954
O        12.42380733534140    1.55986537263845    0.75822038104996
Si        9.92358279959865   -1.10001489152732   -0.22321812075467

