51
CSD_code = GUKMOQ | q = 0 | S = 0 | Stoichiometry = C17H26B7Rh | MND = 10
Rh       11.96628209976405    9.36052545209464    4.56977638471047
C         9.93318198995477    9.62190686565043    3.85067603463158
C        12.49218920706043    8.95506623666542    2.56024559421985
C         9.82946676639963    8.54872040903459    2.81302719535247
B        10.67189749088081   10.91942330243716    3.26781061769221
B        12.23229801966528   10.51808690398794    2.37551492205499
B        11.26868644059758    8.02163612171034    2.18734595649765
B         9.34227095819688   10.13642182411094    2.31843093092177
B        11.78894719322010    9.39502912624708    1.05410806983596
B        10.11827894117428    9.03394004329595    1.19904864681254
B        10.73751816652625   10.75914880452553    1.47588275035195
C         8.93078595790543    9.55904989738563    4.94222442960332
C         8.55732951868188    8.33558064268362    5.50632189768879
C         7.59684615087581    8.27062195756497    6.49836872784830
C         6.98464681147457    9.42593189130103    6.95418777280852
C         7.34276346644659   10.64609829167737    6.40602877193366
C         8.30077254698453   10.71211096579385    5.41180315635243
C        11.51076213111459    9.17412148905695    6.69496296493562
C        11.70028001119090   10.51110866056537    6.36371056122157
C        12.95588625418677   11.30525732835500    6.63375420874777
C        14.24649331387602   10.54749483897029    6.27607324985766
C        14.04600454017586    9.61424835552411    5.10454240636041
C        13.68963713811261    8.27655567337970    5.23213660413992
C        13.45318690190606    7.56971413857134    6.54681733693300
C        12.51362337682827    8.34993500120858    7.47655494945608
H        13.50490808436218    8.56026089301412    2.47541379336804
H         9.05401650786357    7.80694978812802    2.97295410988643
H        10.56405234361990   11.95746003582168    3.81670165729109
H        13.13076262514982   11.28183386201987    2.34565295526287
H        11.39079283527744    6.86826406665943    1.97700697044634
H         8.20476979926007   10.42530483280527    2.30991286375098
H        12.46355172663903    9.24633326246103    0.10412662257197
H         9.44343145262123    8.56958436709274    0.35469025340099
H        10.60330687818592   11.67733419794769    0.75188977820291
H         9.03936667637751    7.42362948642469    5.17931133922107
H         7.32608602365944    7.31276277559145    6.91938276613587
H         6.23322863636268    9.37473334534133    7.72793780581453
H         6.86710398478245   11.55272244642527    6.75109620677432
H         8.55482720838705   11.66690888629276    4.97717233555499
H        10.48552372112293    8.84163910586429    6.82864647674811
H        10.81253305879567   11.13423319446832    6.27594526091679
H        12.97478683785531   11.60584746174932    7.68710513310220
H        12.90651285824570   12.21831956234490    6.03611811121586
H        15.01973765937177   11.27496614841896    6.02328348706030
H        14.60798457818254    9.97816628673999    7.13303873767632
H        14.57488662358645    9.91298596952336    4.20342548735228
H        14.00210868518040    7.59209979309299    4.44380690849611
H        13.01171742807147    6.59375802931019    6.33126246213555
H        14.41610137068301    7.38677930934433    7.03721212322394
H        13.08003443807737    9.00428897485405    8.14014102670958
H        11.97313256507421    7.64369969646563    8.11031118670574

