51
CSD_code = GUKNOR | q = 0 | S = 0 | Stoichiometry = C17H26B7Co | MND = 10
Co        3.58307811926840    3.26440882386941    5.35532728598950
C         3.63941232962946    4.69871163839946    3.94405802816712
C         4.18726214821349    1.67275353067033    4.36667842555754
C         2.91672981844548    3.74734023603549    3.04401869995452
B         5.17201355311268    4.29218626932586    4.04848237633074
B         5.52430385616808    2.50278871715423    4.22326011697862
B         3.04625617371958    2.10282864702124    3.36139602604193
B         4.36730533974223    4.49775748641952    2.41630579164822
B         4.77970909309862    1.68143112697413    2.78419465831548
B         3.88466113441457    2.88363485010394    1.94098151158667
B         5.56823674285847    3.25636311172402    2.62009210855932
C         3.01820175512764    6.00169712986251    4.26055190878216
C         1.63667944451461    6.20199739465701    4.20151768522051
C         1.07714306801859    7.43809579639005    4.46772394379130
C         1.88016349295487    8.51409493065173    4.80291850531127
C         3.25277430848681    8.33693014323127    4.86441842188450
C         3.81187137517480    7.10286671016395    4.59554019918019
C         2.67848354010915    2.39028767775429    6.87704903528239
C         2.27591606857553    3.79499200375280    6.79145504693614
C         3.61581083841697    4.20556600895990    7.10415106785999
C         4.01847447959419    2.79817540123600    7.21121536657197
C         1.91651853905371    1.11734702801117    6.99453374535524
C         0.94871793002020    4.46338571008187    6.82234745489974
C         4.23705070257527    5.47709906567485    7.55860060353465
C         5.19815968514668    2.11783525207076    7.80392042751553
H         4.15274930361899    0.71943571999147    4.88593984883283
H         1.95613144640452    4.07752564405588    2.66316194572708
H         5.94709124499284    5.04966890075145    4.51091913604634
H         6.50307643784540    2.14635859870687    4.77658469477698
H         2.07923055977706    1.45203033023262    3.17784730145868
H         4.30303995790000    5.44338699780795    1.72364922677798
H         5.13179210438911    0.64801248679289    2.34919914585846
H         3.47968494924568    2.75286006350241    0.84319569615171
H         6.57636161066282    3.35204674224860    2.01891953739261
H         0.97751693210011    5.38228013203148    3.95661464070489
H         0.00430296448433    7.56067502209552    4.41345967118453
H         1.44231389967651    9.47935446502117    5.00965379852081
H         3.89264710675400    9.16962916935856    5.11953305189758
H         4.88311644168681    6.98683585570844    4.63253826687632
H         1.45488132331170    1.05653462766084    7.98275135889670
H         2.57349845373180    0.25963262663712    6.87267628904780
H         1.12601415953980    1.06492179453998    6.24865980631233
H         0.51897076973916    4.35640434321704    7.82133412010750
H         0.25946453636705    4.00521192895169    6.11509264307079
H         1.04039872835033    5.52408024992270    6.60170747843891
H         3.77026007946142    6.33270485746892    7.07527563953507
H         5.30237755820858    5.48304524176911    7.33932742547788
H         4.11025893402534    5.58103503067504    8.63861099612077
H         5.11912983799057    2.13703925150411    8.89315726002085
H         6.11722828614900    2.62464801894851    7.51986961152982
H         5.25122883714803    1.08086721020086    7.48228296798269

