66
CSD_code = GUKPAF | q = 0 | S = 0 | Stoichiometry = C22H34B7IIrN | MND = 9
Ir        4.21988440034489   13.60194449042850    3.99168395759410
C         3.33270193927310   14.24451697444588    5.86038269519878
H         3.22523043052191   13.39171512881670    6.53559338929397
C         4.47312086318461   15.80071892084773    3.76803743096287
C         4.67414002398160   16.42119585946081    5.12822397694060
H         5.59739233692923   16.97850834354938    5.25561893801397
B         1.96508272605596   16.39525311717520    4.75939911059350
H         0.92154381949140   16.89661924733030    4.55338699411687
B         2.32732218345413   15.61284160344397    6.31411254824774
H         1.63691516641830   15.45667468385071    7.25167183807311
B         2.13541741676451   14.63966947624659    4.84185316860873
H         1.20729299053404   13.93563271940961    4.68128431146537
B         2.89948065137461   15.57134176995744    3.47353585639227
H         2.48980118245795   15.48511866349240    2.37495711632956
B         3.43500521905801   17.14076398877190    4.17215841743522
H         3.64930237416958   18.13360920215662    3.58581673779815
B         3.24286307886310   17.01907575878622    5.90613368270325
H         3.30930729229527   18.01233418102131    6.53268404555357
B         4.12280647781711   15.52320822903127    6.36224520279476
C         5.53648862520689   16.09391525608126    2.77550840035970
C         6.88642172283181   16.00010430722493    3.12257877619744
H         7.16021219342943   15.67661841293834    4.11718735265048
C         7.88099387563694   16.28092839611701    2.20586959802444
H         8.91821924231332   16.19868473982630    2.49842307722772
C         7.55334070664273   16.66527880177806    0.91622794411878
H         8.33047668755463   16.88381427086679    0.19901048489285
C         6.22015251511313   16.77123441118476    0.55757850199430
H         5.95389240603685   17.07939279008816   -0.44323094762911
C         5.22463814705001   16.49357886512786    1.47545466628321
H         4.18956815006640   16.60610222567266    1.19027614172098
C         5.45947421207762   12.90881275115522    2.27996721146760
H         6.21638805118309   13.65778995506530    2.06733750781530
C         4.18439123071827   13.13151909332193    1.79272126266171
H         4.01311391204081   14.06370930872456    1.27024087382660
C         3.22492250619377   12.02131296292762    1.43827743135911
H         2.61604559613109   12.33782917411280    0.58938603442044
H         3.79599035639664   11.14842495715752    1.11655137498535
C         2.29783947310533   11.65516616996902    2.60292077982328
H         1.95287435597087   10.61890793477846    2.50682906291891
H         1.41421265229369   12.29447464488315    2.56328768603947
C         2.92781583637807   11.84910702395864    3.95656079428386
H         2.18806896783612   11.88184625639916    4.74904476021526
C         4.21869116486993   11.45512473356239    4.32863659800132
H         4.36264673078349   11.23569105113046    5.38572122466251
C         5.13128918334392   10.65423702663433    3.41630739709938
H         5.75668085273052    9.99844451263849    4.02612086225391
H         4.51524896257707   10.00661504249214    2.78968006303939
C         6.03783196116118   11.53769224981230    2.54338621063590
H         7.00028183798115   11.66855578122293    3.04059794430355
H         6.23691391267561   11.04377952783018    1.58555552764241
C         6.18199848719575   13.55170233300371    5.02930674268863
N         6.94535164815682   13.00132634701947    5.70892229412041
C         7.86539886977039   12.33677077099967    6.54249107062808
C         8.61213499388777   11.30342058120151    5.69315529952727
H         7.91772157614741   10.57654415036701    5.27709005142003
H         9.33645345559659   10.77821974695238    6.30982218503813
H         9.13978586074936   11.78978126049576    4.87500806007889
C         7.07772013148108   11.65739124533231    7.66485456566773
H         6.54351951247624   12.40091443562641    8.25106771237345
H         7.76008083445953   11.12251983504858    8.31939264157997
H         6.36031797900536   10.95047054895706    7.25351860852938
C         8.83246245221130   13.37828900009274    7.11085944848749
H         9.36572961630178   13.88214438627587    6.30754279111379
H         9.55573489848359   12.89200289101366    7.75912967671471
H         8.28810486332427   14.11990750150351    7.69065442436368
I         5.33374821942727   15.44565997319294    8.17249040624812

