93
CSD_code = GUKQUA | q = 0 | S = 0 | Stoichiometry = C34H48Cl2HfN2P2SSi3 | MND = 6
Hf        4.24365940992112    3.62174590346839    5.07433548726029
C         6.76564306554449    3.88589228254697    4.68692062713659
H         7.72099843734862    3.38816713864039    4.48586279353236
C         7.46484101270424    3.30399961579808    7.37109940647151
C         8.73835582968153    2.80731481527986    7.10628579515251
H         9.32436261183890    3.22043470848043    6.29573946213013
C         9.25491438238626    1.78221413495547    7.87630770284487
H        10.24371613415393    1.39957330119093    7.66903612198506
C         8.50171581031066    1.24063191081542    8.90633254690847
H         8.90635155723083    0.43512892961769    9.50067892653488
C         7.23027784410403    1.72387903400023    9.16588819153997
H         6.63663396712988    1.29447124297990    9.95809195586281
C         6.71178476335601    2.75284208366115    8.39981495662354
H         5.71349204516094    3.12474403958356    8.57826718439150
C         7.69150218716658    6.10960575249290    6.54787494096754
C         8.93414393925748    6.14149583213042    7.16559110225288
H         9.34312977462471    5.24611141270084    7.61098753559258
C         9.64058291163841    7.33007394773611    7.22614205652141
H        10.60641044104246    7.35375625714788    7.70932288998490
C         9.11348803367813    8.48568727275168    6.67436646603233
H         9.67139369234303    9.40884706507924    6.72163452900366
C         7.86548590703758    8.45986049572661    6.07279057967381
H         7.44564419155219    9.36084037782273    5.65147025269631
C         7.15764790707052    7.27539440675674    6.00920082791017
H         6.17694773025636    7.24585227928656    5.55373866163264
C         5.75739277244454    6.27691368578672    9.11397324563643
H         6.51755803213009    5.51167302189441    9.24784592933669
H         5.32114107383268    6.48419511155441   10.08433540907487
H         6.25847704302224    7.18072273002553    8.78323751186131
C         3.14333987919773    4.64470225769006    8.81143530391810
H         2.35064122274858    4.30561671711547    8.15190488682551
H         2.68693285075243    5.22783329605718    9.60484227936797
H         3.58706135947160    3.76210507707852    9.26347896982692
C         3.58376196907657    7.28779310011991    7.13190008557922
H         4.30270570811193    8.07831465944837    6.93485950003554
H         2.84808305330930    7.68074363839601    7.82496270752811
H         3.06725627279930    7.05879959248722    6.20380647618752
C         7.72581560517984    6.37286209937232    3.19344645973154
C         9.03001732036556    6.15714197836204    3.61843595113067
H         9.29596721579840    5.22774775275878    4.10427864577773
C         9.98574775316423    7.14039795744569    3.44486043565452
H        10.99685776080251    6.97372108144394    3.78585534545502
C         9.64348944295486    8.33881600983793    2.84099332805426
H        10.38994630555079    9.10819550504373    2.71206086405683
C         8.34583831838797    8.55162001774630    2.40533037148598
H         8.08002743768238    9.48523715344966    1.93252508563251
C         7.38635459149947    7.57181290015961    2.58029257096666
H         6.36584569252830    7.72994611661679    2.26186329093281
C         6.52772876311491    4.17176082581495    1.85466261542019
C         7.74540344668816    3.64301268776214    1.44022006000789
H         8.62969402704839    3.77735629353893    2.04831506239904
C         7.82332492664443    2.95447908665029    0.24442073387684
H         8.76743308388835    2.53944779102736   -0.07677154494411
C         6.69141712625360    2.79704360458318   -0.54103276648315
H         6.75671191541087    2.25584625251453   -1.47300353092136
C         5.48185569658034    3.33230810266344   -0.13224133603867
H         4.60174003666348    3.21433764673990   -0.74576765958193
C         5.39757570810321    4.02167696810223    1.06416239866592
H         4.45978801139753    4.44834745859613    1.38763401478728
C         6.26624379249692    0.82820916231082    4.84438723459754
H         7.18833379232586    1.10008066251414    4.34069415942742
H         6.40711282774220   -0.17265235053214    5.23996315558257
H         6.12704211995717    1.48764365512478    5.69974941164505
C         3.65411147798060   -0.61935522988278    4.25018073260547
H         3.29870106680406   -0.43714655751198    5.25932261676662
H         4.19996832152248   -1.55777364604906    4.25527043136235
H         2.78712668256676   -0.74777028494040    3.61276804587403
C         5.52570039783844    0.29164848703980    1.96047569715069
H         4.76652768847500    0.19410653874098    1.19582178059494
H         6.02092217160989   -0.66798050437099    2.05932513078622
H         6.25930152943801    1.00715761813520    1.60531828747602
C         1.89107615974678    4.17590470552494    2.29319025891080
H         2.35956980611931    4.97834324888920    2.85575084256956
H         0.81897664190619    4.31223116692366    2.39072302658679
H         2.13147541653650    4.30913361302083    1.24222300376359
C         2.12131715084934    1.33011194249732    1.35365108386570
H         2.83068789911621    1.58909018981713    0.57645903846747
H         1.12443061827766    1.46639493524615    0.95032251984875
H         2.24723220763155    0.27818826651771    1.57588671390219
C         1.09367575460316    1.80472479698940    4.22264722166414
H         0.70402180524637    0.82245350930786    3.97318860558741
H         0.24963669927869    2.48165591993942    4.30877460436369
H         1.55193076645793    1.73730690178824    5.20719251009538
Cl        3.78044759852796    2.01421590614976    6.74449687761243
Cl        2.13558499378732    4.55845917600951    5.51719846814387
N         5.15295228928157    4.82272831043660    6.57539900066893
N         3.98481462769214    2.35432540199621    3.51353077114097
P         6.70880403654178    4.59015235707456    6.32441396578488
P         6.42885519470674    5.09424976085727    3.42763283769501
S         4.66734411220108    5.95688637203726    3.65812938606371
Si        4.40096253701180    5.73142171819835    7.87887894385054
Si        4.76764111522441    0.81126407095738    3.63835173101167
Si        2.35151569139088    2.41599776069123    2.90787820266230

