93
CSD_code = GUKRAH | q = 0 | S = 0 | Stoichiometry = C34H48Cl2N2P2SSi3Zr | MND = 6
Zr        4.69788913605512   -1.42002573624786    5.07866842876038
C         7.22377580955302   -1.14755518428380    4.68496147651143
H         8.17321263299266   -1.65226985657551    4.47447627413736
C         7.90657058082385   -1.72759987322882    7.37426780243188
C         9.18149202422886   -2.23004507442938    7.12865505753052
H         9.78380739981177   -1.81470675281983    6.33120083481161
C         9.67811931045191   -3.26417867661224    7.90021589099136
H        10.66820397949515   -3.65142809926893    7.70822183943180
C         8.90288446004828   -3.80935203578390    8.91169362887705
H         9.29191112823755   -4.62187958933008    9.50691346705935
C         7.62927030057777   -3.32092216534203    9.15158682771272
H         7.01866831512201   -3.75387610217324    9.92887541342199
C         7.13075174417201   -2.28281328273694    8.38418194578051
H         6.13074491988191   -1.90475837792454    8.54553078553785
C         8.14935910990911    1.08400019981692    6.55075838732522
C         9.39376344126487    1.12098322785318    7.16452981910263
H         9.80752697211531    0.22663632386449    7.60745583917825
C        10.09558167423075    2.31257691940929    7.22406930016284
H        11.06278781244316    2.33984971544922    7.70436144035713
C         9.56227300874969    3.46620205967244    6.67425972171862
H        10.11691415640873    4.39143749704482    6.71994544085644
C         8.31207061876989    3.43578487544772    6.07700275468903
H         7.88763898671885    4.33552829873400    5.65768411214461
C         7.60829661971708    2.24873105008147    6.01565358208690
H         6.62466487659465    2.21456697559786    5.56502432676533
C         8.16957082359954    1.32602028101156    3.17815485378284
C         7.83400700149904    2.52473847647836    2.56248146082843
H         6.81432243761870    2.68254691315687    2.24092762510569
C         8.79444513862981    3.50388221842618    2.38901494759238
H         8.53056588240917    4.43682246239507    1.91378534902573
C        10.09033999050123    3.29146805542279    2.83015825237665
H        10.83777645047284    4.06014812906110    2.70273280433915
C        10.42920404386234    2.09421246931414    3.43811688068245
H        11.43859656047120    1.92769781713595    3.78433478488094
C         9.47187090417328    1.11208952107860    3.60986283081548
H         9.73506191355959    0.18324199505094    4.09862187629104
C         6.94815502540926   -0.87769948747434    1.85630495127850
C         8.16597640501920   -1.38431297334851    1.41604109446354
H         9.06109296896957   -1.22945369285795    2.00321226299943
C         8.23142838973726   -2.07525014244009    0.22055856539033
H         9.17645776955057   -2.47178088937680   -0.12073814585620
C         7.08599960271651   -2.25690895513163   -0.53933591879293
H         7.14187980593145   -2.79784309160369   -1.47211316223533
C         5.87516846627803   -1.74510401808244   -0.10436450259393
H         4.98461914737464   -1.88170292668032   -0.69862048204220
C         5.80320646807073   -1.05449885403580    1.09240068663302
H         4.86436876946020   -0.64376675464359    1.43569807167001
C         3.97708875520219    2.22843160919288    7.04422879535968
H         4.65875036236338    3.07269762305613    6.98662682458344
H         3.12507630636411    2.53667940397294    7.63995493653450
H         3.61339203802305    2.01526209192256    6.04131919256166
C         6.11504248949270    1.27634459270779    9.10115107863422
H         6.87693057865802    0.51948947578360    9.26991487843051
H         5.64976240547688    1.49717981202106   10.05480959230815
H         6.61926653913487    2.17729143504163    8.76752267163656
C         3.55490363405780   -0.42412884238163    8.74745088109348
H         2.85553072010331   -0.89179616159476    8.05916260550162
H         2.98111515812924    0.17788183510100    9.44489380659784
H         4.03283723475587   -1.21740919744647    9.31651411584981
C         6.77078399432402   -4.21132367111456    4.82520345230759
H         7.67859258788335   -3.90369880757509    4.31519198972675
H         6.93929515003377   -5.22237524501087    5.18338236872170
H         6.62822841822039   -3.58219533737424    5.70391561232807
C         5.97779578916521   -4.79198125044640    1.96087451583021
H         5.20352644178279   -4.90775008009487    1.21369035617715
H         6.47593189670678   -5.74874350494225    2.07228168484959
H         6.70338396624636   -4.08436970041163    1.57439581882769
C         4.14089981510174   -5.64140833319942    4.29718549612406
H         3.79551512628256   -5.43256249080227    5.30518512213035
H         4.68547859626567   -6.58038907436814    4.32234212401239
H         3.26784045476062   -5.78634350146732    3.67127869749297
C         2.54930257105246   -3.72505254016877    1.39655772972595
H         3.24149312572687   -3.47528381986974    0.60073171204204
H         1.54355155018585   -3.59149130729603    1.01430415887127
H         2.67944545482283   -4.77534255243803    1.62569161181190
C         1.60500297881395   -3.23367552814372    4.29207640059714
H         1.17405266570161   -4.19715599725988    4.03624502244522
H         0.78604693013262   -2.53397959517700    4.43032143865617
H         2.10424508132679   -3.33820388871728    5.25514028279639
C         2.33771660437248   -0.86858344908794    2.32567993235396
H         2.86388563626694   -0.06062535558884    2.82934471191172
H         1.27932063440219   -0.71402172181517    2.51120033457300
H         2.48969766570135   -0.76214873594672    1.25498149106147
Cl        2.59884068356424   -0.47778036755041    5.49631040571769
Cl        4.28710087308834   -3.02996775302814    6.74797434343176
N         5.61207504966273   -0.19486082767327    6.55908357386319
N         4.48071827844129   -2.68016083076648    3.48940788735003
P         7.16455946702786   -0.43721552865807    6.31859847606660
P         6.86349838401698    0.05404099827992    3.42774596943537
S         5.11586031615241    0.93997021491444    3.66204611989546
Si        4.80406703711963    0.69147257670999    7.82967425622996
Si        5.25114750780962   -4.22169595652415    3.64113237257406
Si        2.83141006250558   -2.62465360366783    2.93954566668336

