67
CSD_code = GUKRIN | q = 0 | S = 0 | Stoichiometry = C30H28Cl2FeN6 | MND = 5
Fe        2.13513131662346    7.44541064861931    5.05480821561953
Cl        2.88058190192117    7.70436792318756    7.08614863027123
Cl        2.49403129256538    5.31764978835951    4.92504178036429
N         1.69979854521489    9.37409249311587    4.89741499921458
C         2.96881521300018   10.08829590514812    5.04343540742024
H         2.92447138858888   11.12000189736305    4.67616785876470
H         3.22374020205527   10.08206145022899    6.10813134647778
C         4.02899744278723    9.29342047721087    4.33379216938679
C         5.14373616396161    9.87026700122726    3.75710224284894
H         5.26194374241023   10.94289804513981    3.77711237880705
C         6.10652350339959    9.05695503381180    3.17410114144156
H         6.99032260244471    9.48518225005678    2.72728529295308
C         5.90457851582442    7.68573324292712    3.19327461812238
H         6.62779206977760    7.00911568007225    2.76746916649251
C         4.75795625454997    7.18425361341740    3.77885971542344
H         4.55969504254306    6.12337861823007    3.82929324603927
N         3.82648299312721    7.96172476169100    4.33322181692973
C         0.70688530508377    9.65187789585738    5.93562372744377
H         0.15916363508696   10.58606098825327    5.76697595435667
H         1.24078026724035    9.70020217718172    6.89021861600875
C        -0.22183115146240    8.47251908848338    6.01216816271978
C        -1.54147929887823    8.57839575823189    6.40656400787285
H        -1.95310797797900    9.54797935396225    6.64205085987788
C        -2.31469621314934    7.42982321385023    6.51131516980817
H        -3.34425653035439    7.48754826996422    6.82879827668288
C        -1.72444043007708    6.21285308384895    6.20802447163949
H        -2.27657229566417    5.29025442837634    6.28574313876338
C        -0.40188253058198    6.18933926344640    5.80837300922148
H         0.10655730915583    5.26594920468012    5.57141097842636
N         0.34346011406775    7.29034465117139    5.70099355971803
C         1.15132115179273    9.51935044908657    3.57014011521461
C         1.06254685891390    8.39990228762816    2.75079511996666
H         1.39581019263543    7.42376263482041    3.10540345528846
C         0.55893906361717    8.49533575523028    1.47105905818888
H         0.52548601544664    7.60364618457052    0.86887487756553
C         0.11521492974537    9.72434574789422    0.95828626044175
C         0.19693630843404   10.84372740600485    1.80035915967841
H        -0.15071189678375   11.80726342353919    1.46718910151376
C         0.70955982093315   10.73948158281328    3.07630544338605
H         0.75943399940995   11.62687567982288    3.69138177063692
N        -0.37533069389301    9.82662440648856   -0.31711498838722
C        -0.55943083102404    8.64652590799902   -1.12685295459134
H        -1.14085387166084    8.91898079139975   -2.01229110652640
H        -1.13436748519501    7.88320181564011   -0.58943512337748
C         0.73759147822270    8.01579849424227   -1.58628613594144
C         1.88740457362043    8.76833854305321   -1.79588887398884
H         1.88322495367415    9.83376190445248   -1.62556814764805
C         3.03490434996912    8.11766541066735   -2.21682836813530
H         3.94703922788094    8.67192444636635   -2.38469105389250
C         2.99291709532662    6.74735983292085   -2.41951353140972
H         3.86517728653782    6.20330214805746   -2.74499137294754
C         1.79443581151083    6.09038664656934   -2.18706495486877
H         1.70222062673575    5.02143286254152   -2.32533375662255
N         0.69881383508560    6.70452657313252   -1.77907655575133
C        -0.72752429831976   11.11315294184686   -0.86552000658247
H        -0.86916113407616   11.00502180144327   -1.94481632396015
H         0.08163672335689   11.83844292135069   -0.72202593831303
C        -1.99443731972995   11.69703301002949   -0.27843267217482
C        -3.03478330585083   10.88820171804675    0.16536162901316
H        -2.95222729756583    9.81385745341896    0.11521603321015
C        -4.17042025877797   11.49240785340285    0.67694148119646
H        -4.99605799848447   10.89264418690308    1.03161068576286
C        -4.23044276236268   12.87645769967212    0.72322231955806
H        -5.09780748447450   13.38591748067205    1.11207513988244
C        -3.13843400442494   13.59162562068949    0.25732648412394
H        -3.12647067443618   14.67356576812533    0.27301280112859
N        -2.04923137905568   13.02099440228910   -0.22564902973986

