53
CSD_code = GUKSIQ | q = 0 | S = 0 | Stoichiometry = C22H28N2Ti | MND = 5
Ti        6.93874078333775    4.56366984848731    3.17816514669160
N         8.21403540435556    5.92382924235293    2.67809797479445
N         7.97458958580627    5.21529499075502    5.25267987954458
C         8.95139523092735    6.59831671225464    3.57707627405235
C         9.83793319440777    7.63555554210937    3.26509354676197
H         9.94950372468919    7.93089133653340    2.23080329747002
C        10.57005200097130    8.28176652860079    4.25262625376471
H        11.24121873489245    9.07854077965465    3.96425234014728
C        10.46021761633741    7.93179770558822    5.57814935910701
H        11.03267094645669    8.43981451486808    6.33907193613530
C         9.58993351490746    6.89422444552371    5.95087119920946
C         8.82883135085595    6.21978127580159    4.95841262962958
C         9.41508126386936    6.46394535126670    7.28375316435436
H         9.97400540954573    6.94856817422713    8.07208491603380
C         8.54621323663542    5.44620051037811    7.55637363475297
H         8.39468497759901    5.09805686264125    8.56738172903562
C         7.83087886986431    4.83435794351330    6.50548803063994
C         8.28330192633029    6.27700414339543    1.31799924154777
C         9.15362769528508    5.58933511905714    0.46311970847786
C         9.18815059690807    5.92683867448433   -0.88119239392588
H         9.86059437238398    5.39514429578385   -1.54043168861121
C         8.38224440745394    6.93212297376649   -1.39545735753466
C         7.52488991851795    7.60641173229882   -0.53417579404907
H         6.89306824952192    8.39153179764615   -0.92654883784773
C         7.46271838228132    7.29643779959231    0.81381608805705
C         6.88263592397024    3.71694274304808    6.81622625017680
H         6.15607473056096    4.03863042273904    7.56162488159179
H         7.42950893113246    2.86896112253087    7.22867885406373
H         6.36293219244290    3.40500003913507    5.91051572078453
C        10.03230736755427    4.51202153742386    1.02920878011581
H        10.82039019875979    4.95383688694756    1.64212666121756
H        10.49600360768594    3.93287662566753    0.23404129113407
H         9.44200175333642    3.84699451804363    1.67139392427368
C         6.54251076071138    8.02503086143892    1.74959946252163
H         5.81793283540044    8.61718012980899    1.19548026416300
H         7.11432841242355    8.69360324910176    2.39631877703892
H         6.01572994273010    7.30732651324275    2.39113133295315
C         8.41739368865609    7.28673186185605   -2.85212944260860
H         7.47525673116595    7.01604736735026   -3.32851564892739
H         9.22263517621017    6.76326073093737   -3.36112856321739
H         8.55945900264056    8.35850338632484   -2.98220435756213
C         7.60298985557238    2.60931976140485    3.54185651747847
H         7.93108214767532    2.09767769921961    2.62538047329337
H         6.79841842481628    1.99213296931740    3.97042897267757
H         8.44761154965025    2.59081853635341    4.24635929996032
C         6.05869142224588    4.06572001869658    1.34982667887949
H         5.56843312044358    4.93121091550172    0.88383670729052
H         5.29619613886193    3.28157170706152    1.46468928509600
H         6.80036818166974    3.69583090674831    0.62911004990893
C         5.10991379815556    5.09650493286954    4.05474381256453
H         5.24715869826928    5.78130516333931    4.90471796788035
H         4.57666792164692    4.20845703535826    4.42770866184050
H         4.43018609146050    5.59116405794607    3.34556310720687

