68
CSD_code = GUKSAI | q = 0 | S = 0 | Stoichiometry = C25H37N5Ti | MND = 5
Ti        7.38659422006167    6.21163292775617   10.67862582003541
N         8.54896860967594    5.71280329070236    9.18497917342442
N         5.90060516460072    5.75837211779709    9.02221325952462
N         6.54416584906176    4.84554563495251   11.65758357908308
N         6.64372213416553    7.93727844934209   10.69452587203234
N         8.74670350479910    6.53934206581484   11.92155284290155
C         8.00993509011109    5.40940039762787    7.99695947013716
C         8.72642862043161    5.07281694747270    6.83931349250147
H         9.80656291182645    5.04766955882445    6.88389738230573
C         8.07459309628060    4.77796424524682    5.65012108939137
H         8.66765358137529    4.52449192449393    4.78229208087409
C         6.70140232840486    4.80108635761175    5.54777286959830
H         6.20753756442044    4.57059498896901    4.61619128832469
C         5.92986141851514    5.13083430861185    6.67334670406961
C         6.57594681140422    5.43536457193107    7.90206135704746
C         4.51899701626027    5.18482428140525    6.67564384623897
H         3.98082715513483    4.96189907911714    5.76474426082881
C         3.85725131842522    5.51661877180286    7.82423381662919
H         2.77832390479156    5.56421220087550    7.84965765886558
C         4.58513776632553    5.80148119124104    8.99875284510682
C         9.94579789717491    5.69000601399405    9.33379491178998
C        10.69613070744602    6.85476967971276    9.12542637582353
C        12.06935973996783    6.82397388457167    9.31553062315248
H        12.64166810863083    7.72879391857335    9.16005169102192
C        12.72362609281084    5.66026626003226    9.69141879180072
C        11.97152342210197    4.50562611446688    9.86894442193062
H        12.47139475164706    3.58830444962514   10.14981812766889
C        10.59832074681971    4.50046542368886    9.69035720879313
C         3.86126528914619    6.16195211497012   10.25921061438030
H         4.59392349598579    6.33600308918710   11.04932928873465
H         3.18570836296381    5.35692842078770   10.54920495021086
H         3.26051263835478    7.05871781404830   10.10550272972336
C         9.99525109161975    8.10686113353923    8.68844429689160
H         9.69143384674527    8.02121665742908    7.64293276518125
H        10.64697568523238    8.97211046243336    8.78791801947201
H         9.09559585060354    8.25022516009317    9.29288106034825
C         9.79302215707339    3.24642946877768    9.86133153989210
H        10.37404009165062    2.47731256875007   10.36532383162363
H         9.48244802488860    2.86294876193517    8.88725882105043
H         8.89203887419922    3.46523151549335   10.43986570606281
C        14.20983168379821    5.63153946010572    9.89351751641357
H        14.63820450546976    6.62319937377518    9.77156982094512
H        14.67838856114395    4.96153056867615    9.17291771276236
H        14.45249893376849    5.26773597838819   10.89125451555271
C         6.18080757731358    3.55571807959362   11.12955414351351
H         6.65202899339174    2.73434182179855   11.70467027354467
H         6.48710416694091    3.45983901520814   10.08297578727597
H         5.08766174332673    3.38560022592739   11.18187220619098
C         6.13213677602350    4.95681916021872   13.03363801688374
H         5.03043530820543    4.92991923477202   13.14131830836958
H         6.50412869051868    5.89387786438947   13.45767103848588
H         6.52722645437796    4.12077646226563   13.64184765484331
C         6.38100492308227    8.72109415800996    9.51489368274900
H         5.29608231658452    8.89420912743251    9.37198101392227
H         6.76378710306475    8.22274289352065    8.61856211088781
H         6.85154504339969    9.72145607255513    9.58072478895999
C         6.13121271743225    8.60525127299926   11.86323912618605
H         6.54815808538739    9.62621507983356   11.95934650316976
H         6.39756873624114    8.04050467179618   12.76102179064494
H         5.03056342493071    8.71927196174287   11.82791294910544
C         9.42026371695107    5.50396663307995   12.66615704212088
H        10.46271981739141    5.37362507981509   12.32390669569142
H         8.89649185967737    4.55330587738541   12.55465986598974
H         9.46335091107566    5.75551871762805   13.74195947343873
C         9.42405858393186    7.79368273022234   12.13672131737744
H         9.47116789980392    8.03641712059643   13.21444480072461
H         8.90178404000349    8.60299040092594   11.62482828289258
H        10.46583248562611    7.75677473364854   11.76961907688968

