51
CSD_code = GULGOL | q = 1 | S = 0 | Stoichiometry = C24H13AuF10N3(1+) | MND = 4
Au        8.30583223441961    7.73816183768846   13.82321061863522
C         9.05779328506988    8.36519272996765   15.54600532275511
C        10.40898483057168    8.46985724228557   15.83117757839262
C        10.87393981730936    8.90680182234299   17.06991793808186
C         9.96358342971507    9.26695571478687   18.06085594925933
C         8.59769106586681    9.17542058429159   17.79919931185686
C         8.17529400090906    8.73046148702610   16.55102479091777
F        11.30861757137489    8.13850287427522   14.89527246467676
F        12.17998761321134    8.97649118110065   17.30087183201897
F        10.39120475117951    9.68185340227795   19.24362256783180
F         7.70827758012698    9.49223025337073   18.73267526652981
F         6.85534721612322    8.61728493131472   16.31263622679142
C         9.37498357284599    9.23806332636624   13.05406980043335
C        10.33229230856939    8.92574515776604   12.10003954010764
C        11.15701808841092    9.88903217404049   11.52749490757909
C        11.03066981029295   11.21884357020343   11.92640951822560
C        10.07793736165786   11.55968533321931   12.88458610935523
C         9.27017090985069   10.56625977060624   13.43630960743483
F        10.44876635197493    7.64883190983358   11.70358984355738
F        12.05040363552430    9.54258054371689   10.60800479815871
F        11.80699199953796   12.15069065422290   11.39529279881771
F         9.94167173575072   12.82030236530289   13.27532854312113
F         8.36651710316647   10.91292879567068   14.35989405483573
N         7.32446907940921    7.19481368450948   12.07235327681265
C         7.35280992985996    7.86477647664958   10.92024852288496
H         7.97250479872712    8.74766903341746   10.89180053336758
C         6.63216249583503    7.46795259908872    9.81142933893610
H         6.69266140857083    8.03705555266819    8.89849640688245
C         5.83651342870908    6.33492662905454    9.90480771667138
H         5.25625296488058    5.99551472887568    9.06119608748632
C         5.79699988908624    5.64964463449546   11.10757222299988
H         5.18663644840705    4.76782815413541   11.22112690775811
C         6.55630517613959    6.10435956136152   12.17699285598930
C         6.59851276453434    5.35632963717190   13.47486423783606
H         5.65819098546751    4.81896517077856   13.63829329543706
H         7.40215086215552    4.61562841458611   13.38839748574629
N         6.92527312407075    6.22742377284366   14.61244577590000
H         6.08173253252858    6.70605212875896   14.92603675648013
C         7.47383079539297    5.45857430776255   15.73302379393095
H         6.86008988675502    4.57398675536139   15.94084443493463
H         7.46464125524311    6.08444325278621   16.62932023786210
C         8.89426893281170    5.03453312630148   15.44146289644245
C         9.54054465295774    4.08584704567973   16.21997924803732
H         9.03145727107455    3.62466081157315   17.05141827735596
C        10.85034600238715    3.75483130904176   15.90740156653854
H        11.38375724503656    3.02779354834168   16.49955657499881
C        11.45797220651815    4.36799718629694   14.82170456011560
H        12.47124454631552    4.13254283410297   14.54205764868713
C        10.73342339655029    5.30027305735790   14.09919231348961
H        11.15373641439013    5.80736472980594   13.24431260025607
N         9.48513523272823    5.62693419551691   14.40747503678334

