56
CSD_code = GULKED | q = 0 | S = 0 | Stoichiometry = C17H29BN6O2Pt | MND = 6
C         5.70827629291904    6.35079950380314   15.64400590531361
C         4.57828523121585    4.15677406061944   14.11102579968699
C         7.55305294733458    5.45322459530453   12.82401763991514
C         8.15178899115748    4.51456749984804   13.80971221416980
C         9.44548241911229    3.99604654826223   13.73716027284273
C         9.59024308716015    3.18769617329967   14.84740695306832
C        10.78289106090721    2.39465632724314   15.24390135006038
C         3.45186815737459    1.29312439898372   15.56808758416246
C         4.84670917960839    1.12124599624933   16.04784517192726
C         5.44006874756748   -0.05949570577458   16.50557408918798
C         6.73204076589407    0.28104043208086   16.85304269300073
C         7.79857945764069   -0.59429260926083   17.40690802197082
C         5.68466354445777    6.19062930510417   19.07207610824273
C         6.69301299939234    5.11206404038102   18.87962557797309
C         7.66479160880337    4.68235076242422   19.78871575269462
C         8.34264431783168    3.66008851215071   19.15149250829307
C         9.47551931898015    2.84615041408951   19.66398134776249
B         8.11517135860409    2.47587676689187   16.84017402414597
O         3.95047726482647    4.52942149627958   16.80843504352065
O         3.88497848965564    3.54843308386312   17.81532927217044
Pt        5.69362313913811    4.29895557243037   15.83664074396931
N         7.55965872173109    4.03914197942497   14.90576066018016
N         8.43548512145010    3.23250578068760   15.53556930520330
N         5.73836300156082    2.10231809265114   16.11448098166865
N         6.88351715472769    1.59718474248109   16.60502774975129
N         6.79434455279820    4.38741463888213   17.77023436129980
N         7.79097760117422    3.50610669151437   17.93270178441647
H         6.50577406888006    6.75073805803586   16.27122046667132
H         4.75299484120605    6.74970556258043   15.98418876391520
H         5.87187463749359    6.69536277509052   14.62696809953315
H         4.98470522924177    3.36289314124379   13.48295755029470
H         4.51977547811826    5.07757183263729   13.53476415324317
H         3.56416119727665    3.89573478685828   14.40631839685097
H         8.07145288708348    5.34833979524041   11.87348037046572
H         7.67108738278726    6.48186748990571   13.16247330934708
H         6.49787203098398    5.25215998094409   12.68053174368917
H        10.17260609990943    4.18679984222149   12.97448129035229
H        11.57211447827252    2.54600448300361   14.51216398342245
H        10.54451129385216    1.33376124408351   15.28976917644722
H        11.14630586499459    2.70315954211069   16.22223211517373
H         2.85108530458127    0.44413587882787   15.88475449844546
H         3.42247991086510    1.35565530294527   14.48104590260994
H         3.03041261285602    2.20397340439737   15.98320602778441
H         4.98268368179799   -1.02547311384996   16.57687722746996
H         7.41998354181802   -1.60914390761208   17.49599574992341
H         8.10985698877793   -0.24899749661113   18.39152091878815
H         8.67294010958807   -0.60050387744642   16.75814862508430
H         5.23544039179319    6.11108701442563   20.06151405645964
H         4.91148769603925    6.13274247685274   18.30952873781390
H         6.16091163563264    7.16859585053113   19.00045387123030
H         7.84267693699885    5.06563501994839   20.77296481506204
H         9.74012104959771    3.18387000329736   20.66257932195789
H        10.34548692452278    2.94386768376993   19.01684294737856
H         9.20512070738682    1.79259819419423   19.70940025996856
H         9.03725340873381    1.81824070450002   17.16305927859553
H         4.21910907588467    3.99618922795791   18.60692542542337

