97
CSD_code = GULMUV | q = 0 | S = 0 | Stoichiometry = C34H58NiP2Si2 | MND = 4
Ni        8.25821340723330    1.36938479924774    5.13542897719372
P         9.45140672311788   -0.48163686456783    5.15114860806676
P         9.99812278106354    2.65878301389169    5.46805669210142
Si        5.63231484395728    3.89497033909720    5.14255907658637
Si        2.66759372446376    0.44191658333633    1.96587589462817
C         6.48274662208642    2.23491804788228    5.12972623470822
C         6.35680456814042    0.99105686073558    4.96681389390333
C         5.76920831118939   -0.27762656599086    4.67313782172302
C         5.53316085429142   -1.22436683948995    5.67169462485210
C         5.01460846256254   -2.46469814690589    5.35655154111914
C         4.73002450228349   -2.78593426530100    4.03867554232947
C         4.91696729710949   -1.83855594218296    3.04660778198974
C         5.40897079634746   -0.57770973152474    3.34747918813508
C         5.57688675973853    0.42527421574143    2.28100956056155
C         6.85403307258262    0.90056713539243    2.00095855447400
C         7.06792849577868    1.78802023381844    0.96501781944371
C         5.99265651051355    2.22243850797360    0.20881171826043
C         4.71826855816397    1.78425656456797    0.51432023449756
C         4.47509064074451    0.88486072703234    1.55088012883293
C         5.18976657500540    4.38335286898171    6.93745709595522
C         6.71363692297739    5.25318902379530    4.34578823744305
C         4.04121164392288    3.72567164958724    4.10180493063437
C         2.36766064130733    0.14385196645345    3.82664559790573
C         1.57648826248618    1.92349421513987    1.44536269969069
C         2.07863674943153   -1.07104137698060    0.95226533454069
C        11.12354392885068    0.07894019160667    5.76403259828938
C        11.45289444239130    1.49884552834328    5.30190603491485
C         9.95962491795664   -1.65909174447596    3.79017981481045
C        10.57222367086397   -0.86660133227292    2.63857751587124
C         8.74983143581630   -2.45307473521597    3.30739090531531
C         8.94064790691522   -1.65598585439021    6.51132056911225
C         9.94211475130073   -2.73740381640022    6.89861068899909
C         8.54062995833554   -0.80782823516135    7.71873964519486
C        10.44988470871500    3.57652293665211    7.03295839273647
C        10.27573414502165    2.63275495322134    8.21850418978434
C         9.53691933012005    4.78621649553678    7.19928218188255
C        10.39155133723658    3.91240429402073    4.14259400568200
C        11.82528209178809    4.42553481771877    4.08747780868557
C         9.95064057708822    3.30632749036675    2.81262887859875
H         5.76412003185904   -0.97472192055643    6.69691685887328
H         4.84187219734547   -3.18966930823379    6.13973698090043
H         4.35356038309828   -3.76688813913039    3.78701261823765
H         4.69302219787753   -2.07579127725865    2.01713050280955
H         7.68833152771195    0.56247940058194    2.60835533821346
H         8.06592504940384    2.13685437660453    0.74229092346463
H         6.14700475294206    2.91247812550372   -0.60874778389739
H         3.88584949129574    2.15231310117296   -0.06663919527071
H         4.69311837689023    5.34890001663028    6.96657633643957
H         6.07053209658468    4.44857055788401    7.56913747227913
H         4.52085881057044    3.65480159751961    7.38575947115835
H         6.14358874565315    6.16593579794729    4.19482358344537
H         7.08347377478293    4.93123731918028    3.37686608437303
H         7.57049072696274    5.50056298485660    4.96363347403046
H         3.57510467221597    4.69282024515051    3.93777098027412
H         3.31135329045854    3.08788367650988    4.58893609364242
H         4.25992753273156    3.29102914864540    3.13123201325030
H         2.54233424728678   -0.89037835062617    4.10271592284809
H         1.34229910279702    0.38576328261806    4.09115377682426
H         3.02092743858903    0.75654121763066    4.43934395564139
H         1.51889907520405    2.02352129690124    0.36596500992812
H         1.95224386053186    2.85964976728210    1.84572796738383
H         0.56138694502046    1.79612426165046    1.80952051786504
H         2.46802235215597   -1.04659925535340   -0.06155125279429
H         0.99480210984117   -1.08610032607083    0.88597884442430
H         2.38867100273669   -2.00777658497437    1.40351564077742
H        11.07681497931085    0.05705829658412    6.85394986276781
H        11.90296902332659   -0.61780086718009    5.44223549656489
H        11.70069615966865    1.47631818547736    4.23860074536155
H        12.31706827059335    1.88907825210134    5.84716435899933
H        10.71525965463068   -2.34743294321623    4.18576036338350
H        11.51115486762149   -0.40507436309747    2.93726957793244
H         9.89010643313265   -0.08335982785083    2.31208528049894
H        10.77220005682462   -1.51985604846509    1.79007098006629
H         8.36312719114862   -3.10197304767208    4.08988355313646
H         9.02017813198161   -3.07481737916793    2.45467947865693
H         7.95021366706816   -1.78249884011240    2.99936871486719
H         8.03191923580951   -2.13554472670388    6.12706793356659
H        10.13346288789041   -3.41774779503462    6.07272078353729
H         9.54248128538678   -3.32188953381760    7.72677666477508
H        10.88739629120062   -2.30519126088917    7.21927233970097
H         8.00566037402062    0.08637532401274    7.37799804933316
H         9.41521057130704   -0.48775816140320    8.28169896127528
H         7.89372828554683   -1.36611058969646    8.39368283595448
H        11.49491491492747    3.90194287982114    6.97875965368385
H        11.00028635067248    1.82238885244890    8.18555228954099
H         9.27278576369907    2.20732572742687    8.20199580793558
H        10.40911839090453    3.16640944365420    9.15891996822153
H         9.75164466205486    5.55189167121306    6.45731441294335
H         9.66643843431868    5.22916757647414    8.18617497474680
H         8.49804325809901    4.47612010819847    7.09259651428140
H         9.72436207969968    4.75543465522494    4.35200217951680
H        12.11580589217997    4.89339665241050    5.02505510011802
H        11.91465924483046    5.17176284440847    3.29858069304482
H        12.52627859072854    3.62367404970786    3.86859791185523
H         8.96443125722256    2.85089324290554    2.94068832485355
H        10.64713671584674    2.53799486029850    2.48045320399610
H         9.88759635689782    4.06688374061483    2.03567983028872

