94
CSD_code = GULNUY | q = 0 | S = 0 | Stoichiometry = C38H45F3N2NiO2P2S | MND = 5
Ni        2.57855748574381    5.24870715998907    9.51366876621339
P         2.47872210604824    6.28380056894611    7.57370949134579
N         1.67786142403961    5.40414690855198    6.41557062073830
C         1.24567042983462    5.80787412047654    5.08202357341883
C        -0.16970498908156    5.30240869398047    4.82611047024807
H        -0.55560508917564    5.71098735705684    3.89545430392459
H        -0.16399566076867    4.21642154276960    4.75572330606170
H        -0.83379126727715    5.58024833012525    5.63978225402991
C         2.20721182493353    5.23929811170794    4.03574658201293
H         1.89502040811886    5.53727517794014    3.03797473628353
H         2.21196648823301    4.15356355355022    4.09544791448851
H         3.21902374357729    5.59473258884054    4.21078801960298
H         1.25654178760382    6.90338342855314    5.03260530438859
C         1.69537372795109    7.93735208458791    7.57959111117408
C         0.31573754353196    8.04920118035942    7.44780091558301
C        -0.28899833978159    9.29280132566561    7.50480509618626
C         0.47345137153263   10.43191581445243    7.70331392966880
C         1.84688366941767   10.32474168406025    7.85318704535794
C         2.45484666305835    9.08412562024249    7.79706817542754
H         3.52701215637442    9.00378386119682    7.91750336036433
H         2.44470422850306   11.21015801221787    8.01751382391638
H        -0.00018514785251   11.40177792464412    7.74821894557847
H        -1.36097564111494    9.37021828459877    7.39936496832047
H        -0.28286495689800    7.16027081217232    7.32373342767439
C         4.07918169969898    6.72378652085756    6.76697746213823
C         4.14838302441549    7.53380619819306    5.63936818156684
C         5.36801299430782    7.80226605586583    5.04439655367558
C         6.53477906805582    7.27403185528440    5.57364881766862
C         6.47917338333935    6.48407831961026    6.70905031236845
C         5.25695917069645    6.21469002949571    7.29886862640551
H         5.20675495771660    5.60869911242794    8.19683086565860
H         7.38694350269263    6.08112145619597    7.13441535878560
H         7.48514509087965    7.48565263452816    5.10632530702518
H         5.41005545498828    8.42907687807704    4.16547055653472
H         3.24619644644918    7.96759291138510    5.23370525794773
P         1.87561747499890    3.24648284471334    8.89269058036244
N         0.27949281297861    3.42382303252681    8.51836584128787
S        -0.44734635994876    4.75455203016167    8.89178076247279
O         0.34655445571790    5.76718052405044    9.56068314872869
O        -1.32786080977673    5.21209355557002    7.86167172786735
C        -1.67685525706005    4.26232644736224   10.25025033892180
F        -2.40776615437392    3.19893864840603    9.90040265994609
F        -2.51347164824643    5.27014647274024   10.50418691349722
F        -1.06536266084230    3.95666423777352   11.40380050694312
C         1.94236223725740    1.84831680725685   10.07113319058163
C         3.17430459837121    1.30210762289382   10.44463509469383
C         4.44912594002825    1.78875028354613    9.82901549619645
H         5.29459058500185    1.60469920691549   10.48955924914154
H         4.63223215998593    1.27074323184992    8.88728605366315
H         4.38433021561627    2.85706015361580    9.61139470554790
C         3.19572043309441    0.28400322466738   11.38854894791417
C         2.02602886056025   -0.18750602910515   11.95872754859557
C         0.80830122808494    0.35580024002381   11.58522196449154
C         0.77232192318320    1.37065145369309   10.64756341051351
H        -0.16900908219436    1.79614296926252   10.33535783833900
H        -0.10874689323154   -0.00803077110002   12.02386784157495
H         2.06605340949204   -0.97842560960175   12.69333937769441
H         4.14454141910425   -0.14405356611221   11.68194537617197
C         2.53307396958167    2.45320047201735    7.36782816661459
C         3.64617605052949    3.05095310600215    6.78813515754460
C         4.20949533007139    2.56089233677383    5.62634907880185
C         3.64935582656088    1.44677121138647    5.02525760393549
C         2.54540191894680    0.84142733359694    5.59813572835096
C         1.97102435326920    1.32116146955614    6.77100270268592
C         0.79239246117111    0.61531639141368    7.35741866346156
H         0.29333641557756    0.00924678058136    6.60456137874467
H         1.11511084428564   -0.04065543021575    8.16619764456467
H         0.09347365973714    1.33884801299668    7.76576699812777
H         2.11296487621286   -0.02937450918403    5.12516728998142
H         4.06892254532337    1.05044717465333    4.11203961634851
H         5.07051890711015    3.04726049850033    5.19223001409728
H         4.06559077349938    3.92750392108424    7.26559093485749
C         3.87561866325106    5.67169091058301   10.94681333263540
C         2.99764042694494    4.70218463036043   11.46462529288300
C         1.78217455103612    5.00738337445124   12.29926807586943
C         2.13058375956334    5.77983489387529   13.58585301358321
C         3.07759994039038    6.96742437029506   13.41751646864348
C         2.58903923689989    8.10112728820880   12.51593529065761
C         2.34238164175974    7.74914638729610   11.03496529141035
C         3.44241834972423    6.90720150061454   10.44062121826788
H         4.21477515496596    7.49647616031252    9.94466197148448
H         1.37216084297118    7.26701244199148   10.92903526497845
H         2.27984485589199    8.68427484244185   10.47304631697360
H         1.65907245222486    8.50697453509162   12.91901115013674
H         3.34013598189028    8.89542900921479   12.56086678678518
H         4.04467011923935    6.61039761507424   13.05612220285546
H         3.24988025438275    7.39195191734951   14.41079557862865
H         2.59648714275961    5.08702016420084   14.29246513797351
H         1.19438327138100    6.12278228497737   14.03026647663589
H         1.30813401304441    4.06457922335014   12.58289489757323
H         1.04096565358681    5.57294557972978   11.73686684168881
H         3.45473780246095    3.74547883077258   11.71755872288486
H         4.89888551676060    5.36234630559692   10.72774729235008
H         1.21156478945820    4.56967583526719    6.74719038002557

