29
CSD_code = GULPEJ | q = 0 | S = 0 | Stoichiometry = C9H10N2PdS7 | MND = 4
Pd        4.94027856296699    2.47660437867145    2.34870493568046
S         6.07379998740433    4.08840655075950    3.51069354013840
C         5.41628544974180    5.52189646343044    2.83947374100834
S         5.96055494684823    7.08893393684432    3.40132152492946
C         4.94030493542548    8.04486349127889    2.34896443969966
S         4.94036999151068    9.67393572237879    2.34893934251273
S         6.07248663990690    0.83259610087471    3.46858259042832
C         5.45043269428864   -0.62322480389329    2.84085890326130
N         5.94819116300406   -1.79956450857135    3.31027921465912
C         5.67462047776825   -2.99925132649210    2.55579940029019
H         5.88594321075136   -3.86805285247045    3.18166920379673
H         6.30864614009935   -3.04896841490778    1.65911813515858
C         7.04499176855918   -1.78911666230397    4.24203304364403
H         7.20643241937348   -2.79669567078264    4.61700078960402
H         6.80389338985654   -1.12780599198533    5.07444432553236
H         7.96513186509412   -1.42364546449411    3.77624548123232
S         3.80723245652245    4.08844338233801    1.18669681994815
C         4.46439119407239    5.52192395670266    1.85821882353095
S         3.92030620936235    7.08897731751313    1.29631877616757
S         3.80840022833974    0.83252461446014    1.22877522013719
C         4.43037497614689   -0.62325575072355    1.85665067062595
N         3.93258073762463   -1.79960759622617    1.38731790427695
C         4.20612195347308   -2.99924870483728    2.14187988027171
H         3.99476914818300   -3.86808866574519    1.51607356651572
H         3.57209920031992   -3.04887632113072    3.03856831510730
C         2.83574609627904   -1.78917503223886    0.45558846963840
H         2.67430596776284   -2.79676095024964    0.08062292767036
H         3.07680134408323   -1.12785399514010   -0.37683509131184
H         1.91560684523111   -1.42371320305977    0.92139510584575

