32
CSD_code = GULQIO | q = 0 | S = 0 | Stoichiometry = C12H10N3O6V | MND = 7
V         0.27604550623620    2.73298847141067    8.28058350602603
O        -0.96559852401465    2.35312714231369    9.10384584949387
O         1.68244462291830    2.22954947354119    9.15871641071422
O         1.40587846373189    3.48641050698873    9.39045069564946
C         0.42569627162633    0.72663820795360    6.28465504618914
N         0.50780732438368    0.80733985703523    7.60553834931371
C         0.81000548653884   -0.26983860527387    8.31154199932231
H         0.85464552089561   -0.13621248888141    9.38658268747129
C         1.05369398420592   -1.49119572422013    7.69834127600939
H         1.28894370725492   -2.35673241319187    8.29773005914815
C         0.99448376662254   -1.58070017340965    6.31414989603730
H         1.19161743325714   -2.51754240644980    5.81426744168739
C         0.67039198387638   -0.44782552317248    5.58630367677997
H         0.59931371832536   -0.44619890418868    4.50965348073734
C        -0.01934699244576    2.03355625428859    5.66486420785290
O        -0.46790788254059    2.84749727914478    6.53591027047775
O         0.06174527168244    2.24527521512181    4.46646063790696
C         0.32004574749163    5.40356845621870    7.18424468205178
N        -0.21583542084977    4.71044163975215    8.18180049918208
C        -0.97093926415761    5.31815871485483    9.08056088876741
H        -1.37508147213338    4.67698619911101    9.85733094825288
C        -1.22448905457572    6.68158762482258    9.02071676505649
H        -1.84336356587313    7.15130134295783    9.76871645995766
C        -0.66644673608275    7.42215392870817    7.98964890223952
H        -0.83706203214960    8.48595001342893    7.91744956622917
C         0.11840833275943    6.77309595285815    7.04941198448921
H         0.58242987949660    7.31385076441379    6.23855483610696
C         1.18736866781806    4.60770320521556    6.24267445534734
O         1.97565290024960    3.78054510901063    6.66107780707749
N         1.08655305320991    4.93742175736915    4.93704030483103
H         1.48172297539084    4.27487143271221    4.28202768136588
H         0.26617632685583    5.42322768955649    4.61284872822892

