42
CSD_code = GULSAH | q = 0 | S = 0 | Stoichiometry = C19H16Cl2N4Pd | MND = 4
Pd        7.59701080138087    2.34985769653471    7.06323701955337
Cl        7.95174201275305    4.51962320656774    6.75607054404058
Cl        8.48547405059580    2.39879060980203    9.09718440465286
N         7.17476418702354    0.36398571279469    7.24491294421559
C         7.79462938403792   -0.67263032765546    7.76913670359578
C         6.93399383538602   -1.77733663419663    7.78436132607062
C         5.75769779723710   -1.32822865148579    7.23618056707946
N         5.94127981305769   -0.02948543166409    6.90361408272237
N         6.71446616588816    2.18715041627540    5.23230482391865
C         6.94141691405769    2.70401377331382    4.04276307141747
C         5.87889820629648    2.39454802838753    3.18459635669512
C         5.00146346338662    1.66022655650652    3.94406734097330
N         5.54493967387443    1.53774624616245    5.17714962873539
C         4.98698366569761    0.96228340323869    6.40288375278312
C         4.87770561012715    2.08417108272915    7.44718827712607
C         4.62163328926948    3.39841563485594    7.04738740321281
C         4.59560801572211    4.41507666028165    7.98763558868333
C         4.80214845030522    4.13358515798342    9.32765526841304
C         4.99330917634301    2.82465205151542    9.73697130556974
C         5.02167331322648    1.79834681014851    8.80737413847405
C         3.65897209238059    0.29240036224808    6.09905749909713
C         2.49081828376160    0.69498122157607    6.73002497735460
C         1.29062828345088    0.06841726277198    6.43610261457096
C         1.24698032862562   -0.96140577705924    5.51336206790815
C         2.41052140498579   -1.36750331812590    4.87987729279155
C         3.61079718638222   -0.74527534971176    5.16956872765265
H         8.80555722246481   -0.58269604054139    8.11935738596883
H         7.14313083820872   -2.76029075692141    8.15131102896907
H         4.82888618940523   -1.83627260485676    7.07944705492685
H         7.83099031066498    3.27606756587062    3.85823676062861
H         5.76818293301546    2.67540249798631    2.15822535903180
H         4.04918248592391    1.24243959525186    3.69126314790411
H         4.44736323598486    3.63394356471173    6.00571970964051
H         4.43241325797869    5.43050703013149    7.66264833132671
H         4.81543668778796    4.93298432362637   10.05157247781371
H         5.14113608866477    2.59577380600401   10.78060540813681
H         5.16106598676245    0.77981324592135    9.14486456456840
H         2.51754132295280    1.49738116599830    7.45065817186947
H         0.38839883910850    0.38990475485656    6.93285761779175
H         0.31083878947771   -1.44777349178229    5.28637151701859
H         2.38529818833955   -2.17003090311621    4.15855038773831
H         4.51462221800800   -1.06706015692864    4.67134334935853

