53
CSD_code = GULWAN | q = 1 | S = 0 | Stoichiometry = C17H31ClNNiP2(1+) | MND = 4
Ni        3.52253421272685    1.96576691208370    2.44269119564028
Cl        1.99984143825201    2.53721520024967    1.19986457900894
P         3.11041501155401    3.54794786725896    3.83585206838392
P         4.08500139021433    0.32901808117693    1.16950342707332
N         4.97635568152773    1.42231232847412    3.63061229027603
C         5.04057454284847    1.90972585109942    4.87864568027036
C         6.06904656477210    1.55055474744986    5.73978644848949
H         6.09977172730585    1.96065158708410    6.73628107471190
C         7.03513269675233    0.65775936691441    5.30926510804567
H         7.83844112099347    0.35970857601339    5.96401307217762
C         6.95077110155013    0.15481924231073    4.02256170766512
H         7.68664282899604   -0.53991625527026    3.65112084937270
C         5.91118414708924    0.56353128979111    3.19747939454772
C         3.94674464627038    2.82741481725872    5.32869920620827
H         4.31063883592472    3.57966925471751    6.03005665558177
H         3.18518469468264    2.23305127005769    5.84721748271770
C         1.48988958686920    4.06940986180027    4.46963704077373
H         0.89357460246484    4.45757816186123    3.64585963841305
H         1.60397016258160    4.83135679571479    5.23976404149366
H         0.97632127275392    3.20366922079909    4.88649207375914
C         4.04677319841219    5.10004867364764    3.36494282840802
C         4.42536671732422    5.95822690621582    4.56663111808597
H         3.55978594544752    6.18430830443019    5.18586170076865
H         4.83467567798441    6.90290870363559    4.21405939489680
H         5.18571060795458    5.48027213530588    5.18077526104981
C         3.14299838687094    5.88028942096561    2.40910547260675
H         2.75185476534241    5.22716380445920    1.62868496067504
H         3.70881040872000    6.67758883444508    1.93173130168526
H         2.30911736612997    6.33346365238642    2.93948258856550
C         5.29646958155579    4.62356314340702    2.61944146856390
H         5.98704374824696    4.11413554210345    3.29207295636095
H         5.82006804201650    5.46683893759663    2.17418773128229
H         5.01044412443365    3.93507490068218    1.81007997082854
C         5.82104201281184    0.08539026221917    1.78160914239744
H         6.18000626428122   -0.93946015382420    1.67616305561245
H         6.45713486254562    0.72395962835102    1.15739859998045
C         4.27282516818585    0.34969379418421   -0.63723509009656
H         3.30395803194249    0.54472655878895   -1.09346013533125
H         4.66985769421057   -0.59959757234727   -0.99472921078836
H         4.95084697206599    1.15611163086307   -0.91460180332541
C         3.11676164612432   -1.21274078493334    1.60815016069579
C         1.82901327727410   -1.16720561210345    0.78416551052276
H         1.35360499607653   -0.18937290058864    0.86486156389192
H         1.12877891543293   -1.91574272611202    1.14902125672352
H         2.02639617703579   -1.37696725920436   -0.26425371411335
C         3.88406265264671   -2.50087571075724    1.33273646288564
H         4.24752018037885   -2.53894461269565    0.30788168720086
H         3.21815004057273   -3.34917610163187    1.47841436691341
H         4.72500301317208   -2.62381256385459    2.01212387342059
C         2.78142047410418   -1.08457849748454    3.09667891022241
H         3.67696400289728   -1.17466138172615    3.71207781207776
H         2.08434406493645   -1.86292498355679    3.39957547143952
H         2.30875471672462   -0.11014814968726    3.29176229128295

