78
CSD_code = GULXUI | q = 0 | S = 0 | Stoichiometry = C24H48F2P3Rh | MND = 4
Rh        5.96099808045525    6.42152739610038    4.41346718433121
P         7.63397015219186    7.00215768556460    5.87866688355896
P         6.87135025767159    7.31449465379373    2.50588743032426
P         4.36876729663624    5.10180024049058    3.39813977134692
F         4.04603945966615    8.11246242654435    5.41621716392808
F         5.55157735353036    3.89878551134899    6.92087267404173
C         7.43069661291087    6.46568739040979    7.64758694231037
H         6.52964882842860    6.96637345004917    8.01484991478599
H         7.20914759672795    5.39847328281965    7.60729041770232
C         8.57443649636533    6.68836916298352    8.63013633878889
H         9.47873604320890    6.17272960183805    8.31770771094257
H         8.28544267485500    6.29164696631203    9.60259845212946
H         8.80385470711995    7.74295085990125    8.76312055534062
C         9.31686057751966    6.31434238255279    5.51107634749782
H         9.59718707678480    6.66503493211221    4.51554644157880
H        10.04577194018219    6.71052431347443    6.22188009804326
C         9.29688179658987    4.79301932614428    5.52163327772036
H         9.13667157082559    4.40837521872179    6.52554593240614
H        10.23350481145862    4.38672163419664    5.14305908289969
H         8.48297398123855    4.43877274935562    4.89063612049351
C         8.09362852397095    8.78380278490127    6.14176578427497
H         8.69159061660271    8.87940729269962    7.04959215523638
H         8.71740753530798    9.10390375416045    5.30576065483888
C         6.84308787308013    9.64647503449927    6.23066377596429
H         6.22502454533422    9.49618238343315    5.34621856999961
H         7.09685570065601   10.70324153893487    6.30527307716007
H         6.25108078789144    9.37337635820878    7.10208509375018
C         7.55365653966060    6.21745761667322    1.16721943220287
H         6.71277732529045    5.80902143731689    0.60536727628944
H         8.16411807137643    6.79755555435477    0.47356726606440
C         8.36557472827340    5.08518749871329    1.77976749773047
H         9.26628245992649    5.46855716120439    2.25444251431432
H         8.66004971233532    4.35733205374127    1.02501839661156
H         7.76840352148688    4.58324965702439    2.54109616712268
C         8.23211084992946    8.58671505890419    2.60175150532721
H         7.91180324315362    9.29670355333689    3.36687296850955
H         9.11006279984100    8.06324418801383    2.99007028363671
C         8.62625708654996    9.35907435653837    1.34795349820431
H         8.94775944582893    8.70044792776009    0.54488549669632
H         9.45953036851306   10.02081007573833    1.58327728513072
H         7.80845954389581    9.97410105407051    0.98287824263262
C         5.63704814306669    8.28456193811440    1.51524261079760
H         6.07664820262999    8.60425996132663    0.56710187856539
H         4.80525409131303    7.61413027623253    1.29177506263351
C         5.10657622262523    9.46620880273775    2.31611705588765
H         4.78467006507727    9.12298352467329    3.29827464185667
H         4.25475925977914    9.92317809238385    1.81426474336972
H         5.86947056435222   10.22917890983519    2.45314473868546
C         4.36297961698309    3.38073630753315    4.07924543278084
H         3.97486533042681    3.43732025332733    5.09717321307356
H         3.68639515975688    2.74632871135632    3.50266888471023
C         5.77133391881933    2.80508205930884    4.09395276789563
H         6.12933224640729    2.61332528719158    3.08375136065796
H         5.80580739492777    1.87365764861939    4.65497494442372
H         6.43867512439329    3.52189200183599    4.57625991657903
C         4.38768728146063    4.68404360093738    1.57655816037204
H         4.47713950232640    5.62248376944036    1.02646950815853
H         5.31873915613263    4.13098694664715    1.42243156919914
C         3.22499240691427    3.88939667913239    0.99418746841736
H         3.07264187120254    2.94873648714383    1.51688944136776
H         3.43606026984160    3.65649715740754   -0.04936372889059
H         2.29886130724703    4.45711348678582    1.02678065972596
C         2.57697858232637    5.50206101577227    3.65290251866128
H         1.96748603379538    4.66837232774103    3.29509414391410
H         2.42590211184143    5.58562027163003    4.73265411696069
C         2.17240176644549    6.80532992867284    2.97720667683452
H         2.81083020694780    7.61606227767482    3.31868600425394
H         1.14012123806552    7.05649835679184    3.21669784260726
H         2.26283167677155    6.73204616404347    1.89488601431026
C         4.85255408633637    6.00232725129197    6.05684143007645
C         3.97792786219050    7.06066731661727    6.30165243790923
C         3.06752367683890    7.14488651097995    7.33272303146537
H         2.43630105762458    8.01477404281936    7.43019896188161
C         2.99254634644017    6.08617290621606    8.22379236674348
H         2.28979448685186    6.11042264601661    9.04207249478418
C         3.83296547016019    5.00056950622669    8.05695460899128
H         3.80868659672002    4.16298615238602    8.73786212732215
C         4.72777307170357    4.98800589814825    7.00122921114596

