78
CSD_code = GULYAP | q = 0 | S = 0 | Stoichiometry = C24H47F3P3Rh | MND = 4
Rh        5.81769851883233    1.23207542807576    4.48564649334457
P         7.48659130971028    0.64095084119470    5.95474064147763
P         6.73498652146670    0.33831799109566    2.58202590439613
P         4.22915445517663    2.54745804199316    3.45454622651877
F         3.89080062549437   -0.45729198894394    5.48251393959955
F         1.96047368209645    1.53628789301440    9.28993792719499
F         5.39719198238735    3.74910357308646    6.99284579670386
C         7.27964791845234    1.17705929897361    7.72355794076921
H         7.03964117906197    2.24003728640202    7.68587146487609
H         6.38968525926756    0.65894794676597    8.09391397346448
C         8.43190748799950    0.97535528261169    8.70090844734102
H         8.70060872073738   -0.07222248567385    8.81301894130703
H         8.12995186387607    1.34211510871217    9.68097932819436
H         9.31604304029362    1.53007955710567    8.39812162381169
C         7.93923666875676   -1.14163775316703    6.22078465219570
H         8.57342336676263   -1.46321939851856    5.39335911232053
H         8.52434002765736   -1.23912236529235    7.13669622500263
C         6.68563175702741   -2.00168761472917    6.29415289784982
H         6.08639414879066   -1.73136185354239    7.16149533791683
H         6.93668040236000   -3.05907137373497    6.36700512040223
H         6.07592693133074   -1.84658825715361    5.40480993331036
C         9.16811459158091    1.33153950443385    5.59076114548874
H         9.89379686532306    0.94805488072915    6.31158844145563
H         9.45842909901062    0.97251296988334    4.60126242130367
C         9.13500529952566    2.85287566435630    5.58482790425516
H         8.31983240252690    3.19209765698090    4.94663493700273
H        10.06920969936611    3.26381691293225    5.20517259285355
H         8.96736424721775    3.24693485933767    6.58380029437815
C         8.08894774301577   -0.93861653473291    2.69162066415385
H         8.96573974509280   -0.42085800540839    3.08969715020977
H         7.75560573765027   -1.64704152557811    3.45256462125095
C         8.49213660327258   -1.71249951662055    1.44171504529051
H         7.67304034252665   -2.31734953663420    1.06281308031623
H         9.31421140739319   -2.38403909418473    1.68809627452707
H         8.83335118960298   -1.05570877232489    0.64521132583876
C         7.42590322742955    1.42954182774928    1.24341068376948
H         8.04443852802944    0.84565911901305    0.56014402731413
H         6.58882804653334    1.83021065352160    0.67048769698820
C         8.22894129501243    2.56992136046638    1.85261150904617
H         7.62408128898759    3.07740521655792    2.60405298864521
H         8.52741024841545    3.29146056209507    1.09347056914531
H         9.12684375028261    2.19383171417668    2.33796017275904
C         5.50188101262453   -0.62932449956024    1.58820932081293
H         4.67045790794785    0.04163470783917    1.36554891224454
H         5.94386715183860   -0.94532836718955    0.63996721810370
C         4.96993839916964   -1.81451202708210    2.38286762554497
H         5.73073248922767   -2.58046622764787    2.51423437901842
H         4.11689088705897   -2.26611256000831    1.87858804963407
H         4.64927688339334   -1.47688049404473    3.36736166750535
C         4.26759217639371    2.97062765858839    1.63565484165372
H         5.20347277096800    3.51778682090127    1.49096297678784
H         4.35521083827559    2.03299953606516    1.08392977260550
C         3.11498436485966    3.77454580158605    1.04592940012722
H         2.18277564806417    3.21687027117519    1.07755562782358
H         3.33249365048766    4.00016216897014    0.00222985008861
H         2.97088159216399    4.71929135246789    1.56347577744308
C         4.20940338000935    4.26469161830236    4.14410969820044
H         3.53178751405593    4.89717146496943    3.56691765376333
H         3.81583779087535    4.20143464606093    5.15955154457637
C         5.61420273876546    4.84906237921544    4.16821899689318
H         6.28505452211060    4.13337899393268    4.64718208248121
H         5.64067382375894    5.77642947407979    4.73608883501704
H         5.97397976585540    5.05095837798167    3.16089418498342
C         2.43726182934387    2.13699037430119    3.68943160772008
H         2.27462635824890    2.04811458580004    4.76701497674259
H         1.82818789361392    2.96983221894498    3.32921878314642
C         2.04489695413802    0.83552801146815    3.00304116397768
H         2.14831564524166    0.91451018462808    1.92240006191112
H         1.01032820908868    0.58097932200328    3.22816704728848
H         2.68092934628055    0.02476590504945    3.34910070238274
C         4.70121476883490    1.64832539584552    6.12675110292132
C         3.82364331582905    0.59006301715596    6.36419162186145
C         2.90517548255339    0.49961028114716    7.38965150449491
H         2.26244860497902   -0.35802748818468    7.50171750993459
C         2.84747863668446    1.56701982594248    8.26731119772903
C         3.67836528739818    2.65990003476075    8.12597104138229
H         3.63657115455876    3.48538096358759    8.81806740541760
C         4.57541397996956    2.66425119591749    7.07025038379066

