70
CSD_code = GULZAO | q = 0 | S = 0 | Stoichiometry = C20H43F3OP2Ru | MND = 6
Ru        3.63868432180579    2.93508438849213    7.38594363618792
C         4.01682001747203    4.02601562125057    5.96668445185959
O         4.18357146617592    4.69286516948552    5.03995255015859
F         3.16549499374016    1.70809997986078    8.93981270374814
C         5.22960459497329    3.22941169554946    8.36044332629430
F         6.28566844043644    3.99959541159643    8.07889058088983
F         5.53974224547573    2.68251177546268    9.52472831848263
P         2.40576129727037    4.55832869462564    8.67104909611181
C         2.78057750208979    4.25235103888233   10.43637447974759
C         2.89304438311526    6.38750228865971    8.48145184529537
C         2.25832890876220    6.95621949915659    7.21353725193360
C         2.53827320031599    7.25562497427668    9.68945958870123
C         4.41409582222137    6.42732863688332    8.31865252120180
C         0.51202526040923    4.37773581798152    8.63136990576332
C        -0.00648421990098    4.45146229148236    7.19457701582865
C         0.24600788277071    2.97394510304613    9.18455559037877
C        -0.25703875772576    5.39171597181070    9.47798357212029
P         4.47041080287498    0.89729515585535    6.40525967631222
C         5.22464480328199   -0.08597008303890    7.75245272205117
C         5.91228514912655    1.03567171745046    5.17193941919963
C         6.82397718255687    2.15570645025499    5.67781825858672
C         6.76082809735903   -0.23179422919438    5.06105081947945
C         5.37409008169274    1.43638748482054    3.79949403301755
C         3.14836068456068   -0.29631550770498    5.73622346946424
C         2.27671130218172   -0.62758738723574    6.95192119868307
C         2.28493761968513    0.39388639762392    4.67941599434874
C         3.68548220823479   -1.60106841098257    5.14834932028535
H         2.30043822647254    2.59807255268062    6.71084089111647
H         2.74064367557903    3.17708358890824   10.60290780853000
H         3.79414523968244    4.59167359285922   10.64829517752878
H         2.08029951348158    4.76112158530217   11.09570570825144
H         2.76354663576001    7.87740904732510    6.92505437218527
H         2.35011982415639    6.24622255648663    6.39200155930866
H         1.20745253086992    7.18809578604131    7.36646290452018
H         2.83017202617516    8.28387408387134    9.47600591175593
H         1.47707117461684    7.25367833667373    9.90831734475385
H         3.07873329142518    6.93762098214482   10.57719870868323
H         4.72302011204282    5.93001695304178    7.40160332037751
H         4.75296056056613    7.46163224799932    8.26969440403116
H         4.91806942846249    5.95620879098694    9.16115243252233
H         0.03038530802096    5.46216807827725    6.79980071871979
H         0.57877719041438    3.80512048455309    6.54453492466669
H        -1.04289862723800    4.11759561520872    7.16427330798558
H        -0.77144564508275    2.66502364629177    8.94982278105383
H         0.92960684964927    2.25369365717706    8.74077677546928
H         0.36720126908391    2.94520536632582   10.26479184615630
H        -0.24073048270030    6.38351048199299    9.03316190957302
H        -1.29873834205790    5.07503899080498    9.52925115774956
H         0.11675171333055    5.44758513749628   10.49761768788996
H         5.39300743872990   -1.11960558585147    7.45711605330948
H         6.17161624306358    0.37096924014670    8.03849255950596
H         4.55466806705400   -0.04403851168460    8.60969520796546
H         7.70310657745592    2.23287012252484    5.03888315069958
H         6.31196255779844    3.11553354711587    5.66028805697786
H         7.17077860959196    1.96068294061959    6.69145016301942
H         6.18399813876796   -1.09494201712736    4.75075311180733
H         7.53676836465068   -0.06621811118015    4.31372020409527
H         7.25392651310038   -0.46099642696018    6.00210146405517
H         6.18426039263368    1.81714438298780    3.17845300155177
H         4.93193570695647    0.58756946037651    3.28425585490774
H         4.62489439475564    2.22121362874604    3.90007476933429
H         2.04609751670118    0.27534475975924    7.51285445816321
H         1.33798046762659   -1.07544655101631    6.62941412128039
H         2.77533546894827   -1.32926766702475    7.61637658009174
H         2.81720138192675    0.52762978171119    3.74265851656394
H         1.40170547523483   -0.21144496256876    4.47942528106345
H         1.95696499925953    1.36884216170078    5.03261342302338
H         2.84348731849492   -2.27213034199963    4.97855042399409
H         4.17205590153447   -1.44147885606843    4.18936889069807
H         4.37346170202149   -2.10619250301259    5.82219170892105

