52
CSD_code = GUMBAS | q = 0 | S = 0 | Stoichiometry = C28H16N6NiO | MND = 4
C         1.99281480290700    1.72779155962142    1.28249565771868
C         0.76605856218328    1.65394479706896    0.50133903958406
C        -0.56270391795132    1.82262133329677    0.85248619920553
H        -0.83200301589908    2.05931213067888    1.86896309812990
C        -1.51379086777623    1.67991332959338   -0.14268439774119
H        -2.55928572325438    1.81027810950078    0.09464084266539
C        -1.15278247280173    1.36994526292853   -1.45232763595024
H        -1.92279859611311    1.26827663510296   -2.20265554422985
C         0.17279010155876    1.19202545319534   -1.80779776760475
H         0.43883777195612    0.95264116215609   -2.82797079862585
C         1.12985041565630    1.34278475435472   -0.81600476891468
C         2.57540280687166    1.24506103108591   -0.79508377616702
C         4.65569725535626    0.78257085820902   -2.00660797013618
C         5.07214641674338    0.33937226304237   -3.26459515684907
H         4.32851879754251    0.05599676275729   -3.99675655670261
C         6.41104976300096    0.26754867056726   -3.57646849450118
H         6.73574400380576   -0.08488697919629   -4.54287368964076
C         7.32383461164413    0.68233778360217   -2.63314616087639
H         8.38103244352264    0.67324506528029   -2.86029056354432
C         6.90040532241004    1.12460096664091   -1.37716032706850
C         5.54536958167781    1.15078391814072   -0.96924430713236
C         7.85143309139381    2.05045598668991    0.68384579670753
C         9.01322105918975    2.54688357215470    1.39337373621762
C        10.33972595906903    2.74427101408179    1.04156513775940
H        10.70836309649660    2.51926690597158    0.05044483606739
C        11.18992949806755    3.25553481716597    2.00640691841300
H        12.22751319252261    3.42947893840078    1.76265121687800
C        10.73183543560488    3.55230863009807    3.28845451999468
H        11.42704718113279    3.94936709541186    4.01330093030230
C         9.41072856500225    3.34853316362870    3.64685586260331
H         9.04738492193445    3.57209981635275    4.63668867242774
C         8.55317465087585    2.84487703176818    2.68337633384071
C         7.13542714095176    2.51476941544392    2.72357351602318
C         5.25077087771247    2.17669493918140    4.11942197176177
C         4.94016385255126    1.69355610397912    5.39055372426523
H         5.74527074316468    1.58658612884964    6.10152987027528
C         3.65434953636628    1.29103853966653    5.70363667096083
H         3.43808490625779    0.90271946558649    6.68766657786966
C         2.65394213310507    1.34310100748990    4.74979797651834
H         1.66606947807549    0.96129604740983    4.95826816377238
C         2.91294314432804    1.81842263634659    3.46422337782764
C         4.21379045817424    2.34053121176413    3.13353781648313
H         2.73714775560740    0.63525441652558   -2.69150759477582
H         8.85359724502575    1.56735162584158   -0.97646868682743
N         3.08450971037758    1.52238074502313    0.39443480007625
N         3.27597541243356    0.85795172321615   -1.86524505926420
N         7.93223151282101    1.56769079340014   -0.55966269319507
N         6.75436598588755    2.08334160577466    1.42304570261091
N         6.53554919220933    2.49437872693181    3.85283139246576
N         1.91318894397862    1.78637151744512    2.55754013201637
Ni        4.96029726301393    1.84336107819693    0.74068891563076
O         4.40267999362760    3.03346043257417    2.08081254267453

