54
CSD_code = GUMHUS | q = 0 | S = 0 | Stoichiometry = C26H24ClPPdS | MND = 4
Pd        7.82151150447721    0.11595826047666    5.26283208632079
Cl        6.32358580945625   -1.56657709098033    5.26926162254664
S         5.94535821623125    1.65322983493350    4.64745128769586
P         9.25230068775927    1.82020119737745    5.02050983310266
C         9.26264021347385   -1.25408939239499    5.77298706904340
H        10.28149979835184   -0.90729381683445    5.57224859193873
H         9.07743383639751   -2.17746660688469    5.21814219656335
H         9.14915921968382   -1.45489665394005    6.84501711554338
C        10.81019140768131    1.44627954347030    7.22140415502451
H         9.84284235621589    1.25070923743655    7.67388071218234
C        11.97314236869113    1.35981666442407    7.96061794983200
H        11.93168241357871    1.10804646430391    9.00991597774874
C        13.19666822904669    1.58527723679469    7.34723914369614
H        14.10891079863905    1.51053252955296    7.92021616185724
C        13.25165145381401    1.89219707041489    5.99825055737204
H        14.20663633996369    2.05439261543030    5.52021359813612
C        12.08756716643834    1.98723955969856    5.25378271721583
H        12.13663014132241    2.21695571381167    4.19908718370431
C        10.86030764822318    1.77485394602329    5.86714464301721
C         9.34925434801311    0.75648894360167    2.48691440914759
H         8.87778888201364   -0.10873688971494    2.97332891133833
C         9.65816677813758    1.88456539570106    3.24579013118446
C        10.22773192957899    2.99936616375014    2.63587084728964
H        10.44119347301873    3.88289669972089    3.22331723007202
C        10.50302315606550    2.97361938200990    1.28064089039572
H        10.94653356691222    3.83659735175329    0.80566712464661
C        10.20744948896220    1.84539906762461    0.53063110904938
H        10.42431331377613    1.83294638411319   -0.52718395519131
C         9.62763510449934    0.73930059855466    1.13155653102378
H         9.38922745942281   -0.13418949023205    0.54338328004991
C         8.66977380196215    3.52078955074169    5.35367147956931
C         9.35073549327916    4.33679188094974    6.25311771106741
H        10.25742237932555    3.97545255476268    6.71574195522697
C         8.88863802066064    5.60305712099073    6.55898596701440
H         9.43341737750772    6.21862941407321    7.25888617865186
C         7.73352387940926    6.07606379514792    5.96249334815831
H         7.36812584133194    7.06634112462033    6.18849789037013
C         7.04159091353485    5.27065107443733    5.07672188763336
H         6.14191106727975    5.64559382052040    4.61001473700651
C         7.48531673911375    3.99077284742232    4.76565921263032
C         6.67298162042485    3.15425931096974    3.83731963942000
H         7.27025420877512    2.74468659777455    3.01978702592336
H         5.84394419286382    3.72699471345009    3.42073400772331
C         5.66152377927363    2.27839015167108    6.29371842919769
C         4.90072145373318    3.42452776942525    6.47287047589269
H         4.45687694525271    3.91551737806362    5.62077054549360
C         4.70730716696017    3.92424444276311    7.74739217976784
H         4.12177616325868    4.82080416662514    7.88670177452791
C         5.25081852190191    3.27087182959536    8.84116194272031
H         5.09807847254856    3.66444015892907    9.83485623507310
C         5.97495952787848    2.10385912922824    8.66130505487502
H         6.38015527525626    1.58129728161458    9.51496958660901
C         6.18557721452676    1.60119899592486    7.38873546467923
H         6.74023283405579    0.65944497030503    7.24786815918114

