123
CSD_code = GUMPAG | q = 0 | S = 0 | Stoichiometry = C63H53Cl2OOsP3 | MND = 6
Os        8.86643104373560    4.29066928912867    5.42785064626288
Cl        9.17140934964983    5.93473485507817    3.67970329270507
P         7.01229351626299    2.26340981927484    1.80814398264409
P         8.10759325109933    2.96516480431532    7.16892026390149
P        11.11604519674696    3.94367940339808    5.39753898721183
O         6.64505722033231    4.90651096215090    4.84073953818546
H         7.03822846364124    5.64865505846448    4.32864405462432
C         9.65901703088049    3.97506327797367    9.24878678348003
H        10.35607809913909    4.22709012087778    8.46406210665255
C         9.47093374068774    4.59732348763245   -0.45927467395684
H        10.10416382306943    5.45873765322718   -0.30946337374537
C         7.82075435956321    3.40238357747311   11.23698695852014
H         7.09905273624455    3.18333610783607   12.01140595324419
C        11.94929926083497    2.82716714933026    1.58440231341658
H        11.77903786559897    3.26138560621112    0.60894499740638
C         7.58170145088314   -1.77532665754113    2.27345013606136
H         6.98469634399391   -2.65725417340702    2.45452154076076
C         3.78478532344408    5.89908540231616    0.88906455902758
H         3.19872476239374    6.37504949149948    0.11659036324517
C         8.33008989415991    1.13990226381161    7.20489144590333
C        12.59264838739279    1.60338568373664    1.69612473325883
H        12.92649816621000    1.08377577324092    0.80892802038855
C         5.16056053268101    6.04843052666280    0.90952004919623
H         5.65350181014778    6.65072463479312    0.16073315814717
C         8.71863943849000   -0.95827342519340    8.31554295525831
H         8.90257633554230   -1.50947397809580    9.22684165348148
C         9.10807414136282    0.48188586148506    1.77291487986420
H         9.70571225987978    1.35316249214246    1.54246162116545
C         9.03330145773311    3.98795923220845   11.56304233713257
H         9.25654784773210    4.22781340197480   12.59267725113192
C         6.27707761192005    3.05085053803457    7.17252318428604
C         3.52215425755924    3.40875330877458    7.02800568291384
H         2.45191682845312    3.54709169560684    6.96701287623551
C         9.95133085626424    4.27373867995480   10.56664290209931
H        10.89437691775608    4.73895466294202   10.81318255007713
C         8.44704470933251    3.38458202197677    8.91531814138010
C         5.70398060606228    4.27297036578284    7.52160826474091
H         6.34390852787218    5.08692735807457    7.83462128126593
C         4.08434610348904    2.19097969823698    6.68400927385505
H         3.45261242019069    1.37532652910901    6.35796306110420
C         7.72161731449041    0.59210819738830    1.89006070397779
C         4.73906329714102    2.56358039033452    0.17606762038541
H         5.38037126961183    3.05385503394126   -0.54146745758910
C         8.26094222618190    0.45752160102008    5.99211944170030
H         8.10350856074917    1.02469105744029    5.08414764014072
C         5.91192479044249    5.43474587545979    1.89619018132278
H         6.97950239696998    5.59290354424430    1.93697339304567
C         5.29047625827126    4.65084621900683    2.86117277497209
C         8.74575411148191    4.09365671739228    0.60777874400104
H         8.83195439482663    4.54848413841605    1.58693070897233
C         6.11577576123099    3.96563554952711    3.92218626014599
H         5.45654578604272    3.32927401552999    4.53133016021610
C         5.45626979077821    2.01055395907047    6.74990982915199
H         5.88556400840325    1.05741678276492    6.47237065664914
C         8.56658964051925    0.41714585056986    8.36787524874576
H         8.64256888888946    0.92618213832895    9.31707039048644
C        11.74425057840986    2.94455181901988    3.98550937523344
C        11.77023927158363    6.65310739438384    5.64107603464478
H        10.79121033534874    6.75447152686749    6.08884601089585
C         7.52597956238858    3.09905439274660    9.92038775130694
H         6.57696501543009    2.64207209076746    9.67191631717002
C         9.72164438121646   -0.74706404353736    1.93035146572269
H        10.79572667815676   -0.81686501608131    1.85106294107036
C         5.26492387106111    2.09203775405064    1.37207132231017
C         4.42535974245115    1.50633272636389    2.31900628271679
H         4.83155007168089    1.19637127869384    3.27323358255077
C         4.33591090391116    4.44897884560518    7.44936372626640
H         3.90134179890887    5.40153442308027    7.71497588725188
C         6.96124313278168   -0.54722439989420    2.13600338807456
H         5.88532682528977   -0.48197717837669    2.20011781737174
C        12.38808099444614    1.71851294933159    4.08932911726490
H        12.58081116752564    1.28373389055542    5.05856657499810
C         7.25018258462099    3.11965774341410    3.34042661001416
C         3.90570825563013    4.54088167137685    2.86168723882436
H         3.41722074422101    3.96909264855093    3.63814922021962
C        11.52979731991907    3.49131268909925    2.72063611865249
H        11.03308360551055    4.44850700520011    2.64598732367113
C         3.07919807941543    1.35619737893297    2.04870647410450
H         2.43039127300107    0.89716528976547    2.77996257277887
C         8.58771728106105    2.87803322037313   -1.88805629227621
H         8.53628838243032    2.40197384640451   -2.85632953829392
C        12.19921257894205    5.40857379792554    5.19479300650010
C         8.46635807296905    3.01768961254411    3.95012696935756
H         9.16878327907187    2.34248856028204    3.44823002978998
C         8.96198866247765   -1.87675096357147    2.18412868329696
H         9.44135740365272   -2.83678127693529    2.30424225006833
C         9.38508691179085    3.99893555115138   -1.70499916008226
H         9.94878001426632    4.39614589804468   -2.53629195159535
C         3.38752607509938    2.41916556823108   -0.08173492032032
H         2.97842781750578    2.78916703684332   -1.00977074378990
C         7.92532110072542    2.99028614037239    0.41495889085722
C         7.86309891375733    2.36571634086949   -0.82937594629959
H         7.25472449022972    1.47872277534314   -0.95522602568103
Cl        8.71657517978519    6.02586087424466    7.07269974996925
C        11.91621733539587    3.12766770143765    6.82473690656850
C         8.63889757974220   -1.62838393787121    7.10692374947503
H         8.75961247573623   -2.70138795599468    7.07196619443194
C        11.47194096173370    1.85096991145977    7.16076097868736
H        10.73248268229361    1.37687870950158    6.52974468035851
C         8.41062882237477   -0.91521888831317    5.94071175671055
H         8.35408507299405   -1.42677194345066    4.99005599312848
C        12.85072171749387    3.75833212359409    7.63834318236904
H        13.19080832657891    4.75537520283871    7.39842935927755
C        11.96086538323009    1.20899682472468    8.28165187515759
H        11.60935645870365    0.21768965526775    8.52981556092445
C         2.56040407767529    1.80730117134989    0.84502242645060
H         1.50732978492648    1.69372890210752    0.63639460609080
C        13.84684493093359    7.63175340878015    4.94290462733234
H        14.48585758287384    8.49681416441861    4.83641074097735
C        12.59130111839804    7.75991095914840    5.51108996918625
H        12.24610656629495    8.72468514707743    5.85293885748677
C        13.33424472536855    3.11446510100715    8.76463605261162
H        14.05696149612352    3.61164785062811    9.39551866849074
C        13.47011917352186    5.28109355836045    4.63693166769905
H        13.81918259426662    4.31350853940360    4.30294657158405
C         3.15732397998842    5.15752103190661    1.87652365915719
H         2.08130920078543    5.06261124491345    1.88100906324680
C        12.81058730180732    1.05545072274434    2.94830541035561
H        13.32215604015800    0.10746631580887    3.04211120633495
C        14.28613012458582    6.38960498902859    4.51209468065548
H        15.26940597452664    6.28439100264091    4.07529384070029
C        12.89244608038383    1.84305916196046    9.08886672963469
H        13.26964963006768    1.34803583253208    9.97179278153614

