77
CSD_code = GUMSOX | q = 0 | S = 0 | Stoichiometry = C29H33AuF6NO4PS2 | MND = 2
Au        5.32698336209065   14.00611273312608   13.98861692823441
P         3.36799181820496   15.13603724074971   13.95790378071755
C         2.77950659968850   15.28355703413019   12.23049931620526
C         2.40961651948645   16.48830622455439   11.60999182512282
C         2.19766618193893   16.50632017336249   10.23803504254247
H         1.92275879654251   17.44125031896833    9.77074351843403
C         2.31875619363293   15.37043858102953    9.45573507986481
C         2.61553770232861   14.17477702077987   10.09265225246873
H         2.67093592784619   13.26668460345546    9.50951576307552
C         2.84543289068268   14.10796462342076   11.45774390317715
C         3.70008471738553   16.78873773445231   14.67450681899897
C         4.87104243495552   17.42685242629154   14.22447148527938
C         5.34300672718660   18.54339646815489   14.90051500570628
H         6.25116529129820   19.01105707357833   14.54916049886386
C         4.68962147398926   19.06160524981042   16.00500069203172
C         3.49264543228674   18.47156965916129   16.38436262061081
H         2.93797402762297   18.89509959339662   17.20976291835570
C         2.97929710021842   17.35612426329658   15.74070552091662
C         2.11940108677340   14.23607894749886   14.95231713407042
C         0.81775495810561   13.93339819689941   14.51587013935348
C         0.05091385692998   13.03341121217437   15.24355835986963
H        -0.94345413589203   12.80005046817489   14.88991865403021
C         0.51444944760202   12.43286148717573   16.40168143717427
C         1.76712824201392   12.80483081263942   16.86431802651565
H         2.13358733554000   12.38772149530718   17.79090728908475
C         2.57349695333659   13.69263216145898   16.16999054230750
C         2.17454003005640   17.76983131924403   12.35139546050683
H         1.75323972136845   17.59245442038699   13.33657889065860
H         1.48328353100734   18.39533926582577   11.78961709019689
H         3.10210802456075   18.32640892196136   12.47621576867293
C         2.11937982847183   15.41625077791288    7.97394833828284
H         1.70525874184370   16.37202274467501    7.66398924524900
H         1.45115943613310   14.61999925778709    7.65163923838611
H         3.07368724192782   15.27370598251992    7.46757898032854
C         3.12529584509652   12.76079921491461   12.04897106708759
H         2.74467943986906   12.67293184663257   13.06446313777706
H         4.20030738924811   12.56587684887817   12.07542103425641
H         2.66508242677459   11.98602681633356   11.43850362706660
C         5.62871682927971   16.99833155201745   13.00654660456639
H         5.97764402534416   17.87985557807839   12.46996221604643
H         5.01856185596897   16.40557839266298   12.32886021690159
H         6.51528753129777   16.41925802390535   13.27396380306080
C         5.22326521097136   20.24421249860695   16.74964107094606
H         6.17413599813532   20.56777926543922   16.33572784187447
H         5.36631686990510   19.99416071698722   17.79967703152992
H         4.51883745964653   21.07377460370034   16.69932859905566
C         1.64127196863805   16.85903178507767   16.20086030286857
H         1.05065262383797   16.47470596143027   15.37439172457694
H         1.09046564254989   17.67490700228283   16.66534916672423
H         1.74722452111199   16.06580872813214   16.93932656306816
C         0.16250062192082   14.56699141060425   13.32484588263577
H         0.47671593275102   15.59808120813083   13.19512333855465
H        -0.91816525961396   14.55274360512999   13.45465901714510
H         0.39475143733377   14.02315963702722   12.41027113291224
C        -0.31376518488247   11.44346821627843   17.15841994644881
H        -1.25489971827211   11.25027101184896   16.65045130277153
H        -0.52735192463090   11.81550471173996   18.15962410419892
H         0.22780189199019   10.50481378879581   17.26294107418263
C         3.88937626368155   14.04552803322183   16.78964817056375
H         3.79839565941390   14.03498409826816   17.87461229835911
H         4.24095854211337   15.02922609535020   16.48565752309841
H         4.64053059359328   13.30045736036025   16.52020711830649
S         7.13356071255815   11.71735916956213   14.96959608775739
O         8.19636380664631   11.63641431232436   15.90700823272149
O         5.79024704673466   11.50285046442523   15.41177670993195
N         7.18745373029387   13.05401596145377   14.10325145108615
C         7.38858219012035   10.39914222383258   13.65289836223189
F         7.19135995972621    9.17637021220148   14.14030274954847
F         6.48121581528931   10.60284346071040   12.69063274698434
F         8.58871829601339   10.43677639949655   13.09586715956672
S         8.54553336865045   13.89871967993607   14.19765415603643
O         9.69994284959622   13.12168540017409   13.93164087452385
O         8.35196949166311   15.12489538221733   13.49134081693633
C         8.59238374156071   14.42604804673042   16.02023367692346
F         8.78294062854001   15.74853920632530   16.07802816596514
F         9.54476129665559   13.85653377980526   16.73155522564201
F         7.40831507570331   14.19364979561177   16.60441110229329

