51
CSD_code = GUMWUH | q = 1 | S = 0 | Stoichiometry = C25H21N4Pt(1+) | MND = 4
C         3.30484149178203    0.81425277494884    8.09452687514789
H         2.30782764096111    0.39439912875558    8.05639423713344
C         3.84231085766357    1.49824754655977    7.02111759123056
H         3.26581191613819    1.62367194342071    6.11974673484090
C         5.12873367468540    2.01594884006682    7.12641729216491
H         5.57613419848180    2.55464215070493    6.30644292067675
C         5.82560589555099    1.82731896350086    8.30480065792330
H         6.82442896648381    2.21639728688571    8.41687764694285
C         5.23444700018290    1.12979735149890    9.35515286671881
C         5.89196638903408    0.88108420587898   10.63743541888181
C         7.16189120417696    1.26890609059259   11.05053252365551
H         7.81421859054438    1.82916997330368   10.40183581078701
C         7.57941461128574    0.91790764399964   12.32930710425452
H         8.56052682454989    1.21002606115617   12.66798445715146
C         6.74736386787925    0.19549952922832   13.17701066461079
H         7.08031567659722   -0.07057911383777   14.16623740883752
C         5.48663655032102   -0.16894554619939   12.71702423344299
C         4.44338078944336   -0.92052984035470   13.41355825355472
C         4.57766693691953   -1.41037695538271   14.71012934756971
H         5.49245131233732   -1.23947407714152   15.25378694099887
C         3.53848799387405   -2.11223607950456   15.29092054270689
H         3.63113636645443   -2.49638455979696   16.29418795702839
C         2.37467914968703   -2.31173056439688   14.55628057094939
H         1.54172161994257   -2.85329389080091   14.97272139145752
C         2.29571439428157   -1.80382975365708   13.27374449893574
H         1.40919990709310   -1.93608268422992   12.66685005987108
C         1.59011209060717   -0.83939356002127   10.26431789958844
C         0.48199760333451   -1.15149262064875    9.85776473262804
C        -0.79020549726289   -1.51050958908119    9.38551168323689
C        -1.20301600150493   -1.15890545061430    8.09252537107651
H        -0.53025715268560   -0.59912114458760    7.45902590772991
C        -2.44290633507222   -1.51023008016130    7.62349755626188
H        -2.72008198629289   -1.20909332676829    6.62719425942926
C        -3.34839928218089   -2.23684461073572    8.42417410242413
C        -2.92720869321679   -2.58412148329863    9.72457903874792
H        -3.57749102479940   -3.14667754391686   10.37328232838340
C        -1.68553032763749   -2.23122574548994   10.18816198253750
H        -1.38674133043095   -2.51395676550220   11.18709329812690
C        -5.53713337231877   -3.22772025724534    8.82695977619241
H        -5.22357519465693   -4.24273074506345    9.09016117603413
H        -6.49772118015631   -3.28828631115552    8.32236469822476
H        -5.67448136392243   -2.65313634468764    9.74584930853101
C        -4.95254084776208   -2.32664892326568    6.59302494496515
H        -5.07218013249041   -1.25417271675653    6.41013044350738
H        -5.89777345712512   -2.81678359079361    6.37551395958967
H        -4.20275013465450   -2.71926383510571    5.90246744190787
N         3.96943174773704    0.62668098184103    9.23654212179450
N         5.11184870503867    0.18421931120463   11.47794239148427
N         3.29350844526916   -1.12504061915159   12.70371391571528
N        -4.57648531124764   -2.58868864206271    7.96092639428936
Pt        3.37266620708978   -0.32436281215413   10.88195126012979

