73
CSD_code = GUNDEY | q = 0 | S = 0 | Stoichiometry = C29H33BrMnN2O4PSi2 | MND = 6
Br        1.28159955265954    2.67050630741223    4.01827068646157
Mn        3.13286364395357    2.39546871453432    2.33209013156907
P         1.99084483054067    3.38200482675264    0.53127228942683
Si        2.94721313032318    8.54632297885853    1.18527195929724
Si        4.07918002150454    6.83701104068805   -1.21516528237566
O         3.89856764542816    5.16078194755105    2.94502595781930
O         4.57828161886571    1.14193459407626    4.56035334498605
O         5.49018125710729    1.97450754094906    0.66338964639041
O         1.77584951146154   -0.07173895642878    1.48902763427346
N         2.59489866069093    4.86407957080677    0.17475267469798
N         2.91650818518586    7.11623746921630    0.11345650229221
C         3.63547902436194    4.06662522235163    2.73951992913366
C         4.01645060366198    1.63201547784723    3.69308024422658
C         4.53982348861346    2.14619208921975    1.28244575790962
C         2.32654912659773    0.86955259018100    1.82662169585077
C         2.48657915914701    2.44981871035722   -0.96070205932320
C         3.67021741219178    2.77074752545717   -1.61514710432348
C         4.08052643957329    2.03233429426393   -2.70992975076740
C         3.32059480120195    0.96102179569952   -3.14960414675690
C         2.14514561275824    0.63193379531125   -2.49446046861767
C         1.72715581107803    1.37092966653295   -1.40272679373290
C         0.17451435252617    3.34689868394641    0.27024474089079
C        -0.27855220066990    4.04540335527916   -0.84675822263922
C        -1.62590813187703    4.08118075290861   -1.14095437984156
C        -2.52956521840532    3.41334956909101   -0.32813256889283
C        -2.07875194326461    2.70366472452471    0.77004113273344
C        -0.72764770482897    2.66601883580194    1.07338182199493
C         2.15662019499070    6.05516177920906    0.44297688569579
C         0.81194878730747    6.30456010193614    0.98181504312624
C        -0.03338122581277    7.16345647544639    0.28544678115177
C        -1.34191069782240    7.32690643046626    0.69956273867647
C        -1.81145309686822    6.64950822210818    1.81412313517906
C        -0.97028778028875    5.80292162290852    2.51636575330469
C         0.33269655922409    5.62476404471880    2.09222986164193
C         2.22902227456856   10.03048022216647    0.23195616312874
C         2.00118834279198    8.32723114125717    2.82090527706946
C         4.77041537151706    8.76356366553056    1.69723113639761
C         4.62680393417215    8.51029593101996   -1.94218638716118
C         5.60188881099513    5.89491779118000   -0.56518133033302
C         3.11837759213860    6.01750369156241   -2.64541745051561
H         4.25748422040886    3.60416543566839   -1.26164219896351
H         4.99939346760787    2.28976718566572   -3.21611949670777
H         3.64468686868472    0.38056547768159   -4.00070463601843
H         1.55158342373847   -0.20449828883627   -2.83321227188304
H         0.80602541971714    1.11292877408953   -0.89691503246395
H         0.43490475375188    4.56025264475511   -1.47718217588813
H        -1.97347826930417    4.62845543679119   -2.00503183975075
H        -3.58455747356874    3.44544539824386   -0.55655924801395
H        -2.77783617900336    2.17629703480666    1.40126245595574
H        -0.39578248682972    2.11578607065975    1.94024171413126
H         0.33745750683340    7.67393454826943   -0.59087735913072
H        -2.00034365048844    7.98300731048595    0.14908578650517
H        -2.83404439131024    6.78216241895980    2.13408152901348
H        -1.31854710258900    5.26955518651664    3.38698008652717
H         0.98994478241447    4.97670391551391    2.65222203387398
H         2.56006316932616   10.95797913133745    0.68735126135872
H         2.53454250215803   10.04759482518443   -0.80782105695595
H         1.14322917128541   10.02836112554287    0.25964174398001
H         2.30094928340230    9.11216850683524    3.50980935986737
H         0.92453966860055    8.39149183756003    2.70548079026678
H         2.22661862168707    7.37875718835926    3.29732411459412
H         5.11519224499863    7.89480451866854    2.25097135765028
H         5.44259999682176    8.90358875333262    0.85902405319818
H         4.87531424676077    9.62606584212831    2.34817237805197
H         4.94429646700906    9.23082240651471   -1.19951716354295
H         5.46411022805288    8.34117299123578   -2.61172849714578
H         3.83748018515101    8.96703749457678   -2.53051062329403
H         5.32512689466150    5.15115749023660    0.17634013923732
H         6.12531952383129    5.38697417025688   -1.37013455874761
H         6.30937832248825    6.57378725977491   -0.09724753610031
H         2.28135956182964    6.64115029957653   -2.95050282152053
H         3.76424472464985    5.89603943081387   -3.50983055511528
H         2.72671654017419    5.03904393610082   -2.39364471298039

