61
CSD_code = GUNGUT | q = 0 | S = 0 | Stoichiometry = C30H18ClFN6O4Ru | MND = 6
C         5.90295462452331   12.67676143651244    2.49871519307909
C         4.64303038650350   13.08137250224435    2.02328191035963
C         3.08757922493981   14.75432144697544    1.86230148474308
H         2.77688933310834   15.77097811586155    2.06156324717715
C         2.22834426002507   13.88200222200151    1.18720256629771
C         2.56471578442003   12.57755677620835    0.90871902117830
H         1.89552977607532   11.91500756190298    0.38394788271210
C         3.82349227045767   12.13391129801916    1.34564451906197
C         4.34975127184611   10.83146012212270    1.19197714464493
C         3.72964946529162    9.67383039358299    0.54825648458766
C         5.80933126356706    9.01503137632534    1.34877871453242
C         5.60797188659896   10.45059702413978    1.67774582697265
C         6.42283232181836   11.35215749807369    2.34431230588714
C         7.69674474794443   11.40118492081870    2.99503105403242
C         8.69790395747325   10.46420680780621    3.20392366507516
H         8.60586556809923    9.45421876296342    2.83922413066722
C         9.83227549493327   10.86600344344161    3.89507866936146
C         9.96183733363636   12.17906348607160    4.37006585748882
H        10.86311652653004   12.45416631315232    4.90273627431185
C         8.97606515956173   13.12283600110376    4.17329694240387
H         9.07552595882988   14.13169623380369    4.54268433017928
C         7.83342358978721   12.73831771613031    3.48249389928387
C         4.88452870955851   13.52196877498671    5.70996682834074
H         5.48154931066379   12.75827774568373    5.22691482431318
C         4.29582744239933   13.24941650806227    6.95368237236649
C         3.52906802902387   14.26540226134060    7.54608810501066
H         3.05648709476788   14.09441473750108    8.50145366078793
C         3.40436730327119   15.47137649483531    6.90085967462878
H         2.83435110614318   16.27717116937448    7.33560244706992
C         4.04429342148816   15.66735256486370    5.67085994708465
C         4.03299509248085   16.89892538341878    4.94181973429332
H         3.48707541188008   17.75789371455987    5.32260008679058
C         4.80578519997294   18.15703882221174    3.13780731310876
C         5.08883049238847   19.34059120990264    3.81985302618975
H         5.25207753028309   19.31277350265542    4.88707861518869
C         5.22769087351283   20.52480337118037    3.12046045888300
H         5.46550865141387   21.43279301070838    3.65354020510887
C         5.06914353056547   20.54751469138654    1.74519156124131
H         5.17626013130487   21.47458267667193    1.20330022237522
C         4.78701860458561   19.37384579664182    1.06377192371320
H         4.66931999021273   19.38588998999847   -0.00900086708078
C         4.66306063697897   18.18190942896656    1.75002818013998
H         4.45034386994429   17.26415199476790    1.21930192066400
C         6.73502988377355   16.05673948955010    2.03374935240593
N         6.72405716326817   13.48798224475554    3.17026360995814
N         4.28521251328979   14.35944756361108    2.26556656675282
N         4.66051704573774    8.64254908514839    0.68033594993292
H         4.50435298098078    7.71229855740935    0.32176007930252
N         4.76382372276238   14.68028860234966    5.09122987321396
N         4.42356574850819   12.02229888109314    7.52473141590484
H         5.12617095932637   11.39726432086286    7.16819945097849
H         4.16755712791475   11.91146473845222    8.49067102243092
N         4.69344629983258   16.94424832849045    3.82664097769950
O         2.65480268928563    9.55756243539563    0.00883098370971
O         6.73837358843416    8.28946912320666    1.59471448872611
O        10.81424613069615    9.94578657757102    4.10330887206424
H        11.55466137684082   10.35642537486060    4.56580022826264
O         7.39711059089674   16.54349275990160    1.23969840927006
F         1.02939877135129   14.36598306372495    0.81074516488534
Cl        7.33093262328983   16.14332106992128    4.96877845469429
Ru        5.76022814482474   15.32060247484363    3.42401373568940

