136
CSD_code = GUNHIG | q = 1 | S = 0 | Stoichiometry = C53H72BN6OP2Ru(1+) | MND = 6
Ru       -5.73972503441954    3.75198288428969    2.26975900143614
P        -6.93895896840864    2.22494904428022    3.56276455823936
P        -7.19527502311833    3.09073017664622    0.53812238045401
O        -4.13968129763247    2.20452351550801    1.67043417206662
N        -6.92957322292015    5.43990917655723    2.94756162476668
N        -6.16087568663154    6.39621056083193    3.51254841249839
N        -4.59218789654406    5.14330101664938    1.09610196020192
N        -4.56520870188869    6.39410512386986    1.59440954792800
N        -4.25697376531979    4.25217106720227    3.77611782594092
N        -3.84832305830846    5.53293761258988    3.78073545038446
C        -8.49416515776071    1.68970455548544    2.67988196641337
C        -8.34526784164830    1.75017957447188    1.16338154416401
C        -8.19629264193110    5.69894072092783    3.29065221119228
C        -8.22557996416465    6.81971709318847    4.12207212583165
C        -6.91807388860181    7.23990400018695    4.24362167710701
C        -9.42683445063989    5.03382946643406    2.76673980918358
C       -10.21553094750832    6.04211728499520    1.92347700823133
H       -10.60469650956328    6.83687701689809    2.55425492711070
H       -11.05380804594347    5.54850512416743    1.43815297108631
H        -9.58738688236124    6.48972546967506    1.16014375925870
C       -10.32662330939794    4.53609872800026    3.89997526857500
H       -10.72078997137131    5.38056909021601    4.45912778009111
H        -9.78522563500295    3.90262414477894    4.59602322075310
H       -11.17043469043204    3.98200206201997    3.49397117407187
C        -6.37449286316167    8.37278006179500    5.05468672387400
C        -5.65520318708535    7.82007573672946    6.29021534663097
H        -6.36794150307588    7.31154241261367    6.93519204576449
H        -5.20071932170392    8.63130892102580    6.85309675456217
H        -4.87840645148315    7.11536542790241    6.00399996287817
C        -7.48107012625017    9.33860562315488    5.47236643199690
H        -7.04946371426541   10.18686433534988    5.99729212248461
H        -8.18749315683884    8.85094799425669    6.13905479186639
H        -8.01752688481252    9.70930305414945    4.60263965183501
C        -4.11408333859088    5.19736800482424   -0.14941708955922
C        -3.79661528091785    6.52050685483125   -0.46103056799964
C        -4.10034065357679    7.25697707098624    0.66828600408428
C        -3.88696245184401    4.00435133109816   -1.01834580237941
C        -2.39386740473902    3.65129756982165   -1.03059684911666
H        -1.98806743846100    3.56896861327406   -0.02157914565958
H        -1.83080000557027    4.42533387283432   -1.54675417941143
H        -2.23471588469173    2.70883573943676   -1.54893603544596
C        -4.37679839668365    4.26333772703210   -2.44200351973012
H        -3.78444306388437    5.04045721490708   -2.91740648067854
H        -5.41848235039883    4.57620618942415   -2.43583064832219
H        -4.29275803940828    3.35644995304442   -3.03565509782812
C        -4.04359633970894    8.73664536240621    0.87151586840480
C        -5.47217785387565    9.29394647663389    0.87386027365948
H        -5.45581995416954   10.36408980546314    1.06282094862963
H        -6.07349033526849    8.81167294316999    1.64126937934268
H        -5.94028324841561    9.12286965685403   -0.09312137742285
C        -3.20266345935559    9.41755987023356   -0.20542120718939
H        -2.19942240835325    8.99915515769808   -0.23433633880304
H        -3.12464323037669   10.48075103158278    0.00618954624331
H        -3.66034045409385    9.29936367842742   -1.18431585107537
C        -3.39388008972664    3.55759472846351    4.52506118154978
C        -2.40176601920042    4.41743711611334    4.99767157515852
C        -2.72052227733576    5.66840803307799    4.50410170285594
C        -3.52013242882695    2.10924493060175    4.87056964576271
C        -3.76035280621629    1.95937894920600    6.37532731862288
H        -3.87265971530254    0.90815914998082    6.62893810130766
H        -4.66384719084577    2.48775465620880    6.67183267520189
H        -2.92316120957979    2.36368981292573    6.93831630512295
C        -2.27140314490224    1.31930759927803    4.46404555478848
H        -1.97051558857334    1.51729441950274    3.43532065332165
H        -2.45322685373113    0.25225428542414    4.57282210776595
H        -1.43504266237463    1.58684525521459    5.10485890378722
C        -1.96219944526504    6.94880024059146    4.64081077538954
C        -1.13637366216309    7.17984541555451    3.36947933135790
H        -0.60677166972981    8.12652813401096    3.43458768191146
H        -1.77801320770077    7.19883144707132    2.49137348734042
H        -0.40434637499463    6.38408268341515    3.24747421878723
C        -1.05933257792204    6.93264394425154    5.87229362107193
H        -1.63368182189176    6.70996229491222    6.76837268021794
H        -0.59023082956224    7.90497782144442    5.99717578390862
H        -0.27325996659264    6.18950108117836    5.76634239997137
C        -6.30951497922349    0.53834710544663    3.94916393182458
C        -6.25937931425994    0.00367405534569    5.23245843402984
C        -5.80049932932539   -1.28770943382493    5.42853688429174
C        -5.38389193128317   -2.05776693099486    4.35576312960397
C        -5.42503066641584   -1.53035315511334    3.07509789576764
C        -5.88321843288176   -0.24196316579536    2.87720271862756
C        -7.56777196761757    2.73718964734137    5.19015199936722
C        -6.97207444456474    3.81903133437959    5.82752499223881
C        -7.40896393834548    4.22017865065948    7.07795539572205
C        -8.44525335274484    3.54524853935963    7.70000768230096
C        -9.04243397654702    2.46280997916793    7.07191821116354
C        -8.60685604344943    2.05616001013724    5.82441790339259
C        -6.68511528954588    2.17148587953388   -0.97894465132671
C        -5.78079627397639    1.12064210335394   -0.82973258867906
C        -5.40716393698315    0.34137123559320   -1.90677039866087
C        -5.93355245875362    0.59965726072411   -3.16227542588346
C        -6.81918517380559    1.64933878703994   -3.32619976365776
C        -7.19039549260337    2.43440281610700   -2.24661301941730
C        -8.23256035954236    4.36906896970434   -0.25155018661413
C        -9.47908657493072    4.13009665141206   -0.82492617232885
C       -10.12537531579166    5.13007420996410   -1.52967579170724
C        -9.53308858415846    6.37299164336510   -1.68534256531287
C        -8.29757423856573    6.62161227891315   -1.11080229850711
C        -7.65642585789702    5.62771079069055   -0.39285595356310
B        -4.70234908689299    6.60813400084537    3.10390103357110
H        -4.33489340213945    7.68292579681038    3.40295125894457
H        -9.30069116781032    2.33816876599424    3.01918905296491
H        -3.40949740907813    2.70459704901692    1.27948373901168
H        -8.73473114365376    0.66591490380500    2.98270856840902
H        -3.79083022010148    1.71492328492161    2.42800644717426
H        -9.32414388071741    1.86167387031409    0.69135297962256
H        -7.91919050248081    0.81067743003528    0.79952144200393
H        -9.09404307817687    7.26026312673983    4.56237245214648
H        -9.11582828838159    4.20473199945565    2.12305735261128
H        -5.65021018698425    8.92473531654898    4.44850914207812
H        -3.39736898964243    6.88065237447013   -1.38467793766221
H        -4.45326199599102    3.16445933897911   -0.60575175638477
H        -3.59066609113713    8.94392149183980    1.84585548380280
H        -1.57210337690526    4.15320636272865    5.61798624695140
H        -4.39895157239921    1.70630733435747    4.35586821577709
H        -2.67558383524356    7.77100398452418    4.74560288635567
H        -6.57250789438835    0.59178938743512    6.08139302620932
H        -5.77025897613651   -1.69444265844006    6.42823397045775
H        -5.02825538698615   -3.06371141434814    4.51651936004869
H        -5.10294122737029   -2.12401634607482    2.23252975957928
H        -5.91823398674155    0.17619688574516    1.88153085189197
H        -6.16443363683696    4.34291429307741    5.33594008389074
H        -6.93710640635048    5.05704937649955    7.57026452380697
H        -8.78767874503347    3.85825153351733    8.67435643322229
H        -9.84836602781474    1.93339552382276    7.55723693813691
H        -9.07114575787352    1.20701968059944    5.34355464485636
H        -5.34566289966444    0.93055069195189    0.14099975968381
H        -4.70520057928165   -0.46770113473900   -1.76861186211356
H        -5.64860107881088   -0.00913397000947   -4.00641130904228
H        -7.22660509992792    1.86559740151485   -4.30219881013389
H        -7.87470632631809    3.25230526473489   -2.40827826532743
H        -9.94963763138486    3.16085853856457   -0.74216804368993
H       -11.09081498698545    4.93377292048099   -1.97144382159428
H       -10.03532418346064    7.14407324133568   -2.24881881372040
H        -7.83461619453912    7.59082299590200   -1.22116537569224
H        -6.70234987811654    5.82431789525250    0.07104823554573

