95
CSD_code = GUNJUU | q = 0 | S = 0 | Stoichiometry = C46H40O4P4Pd | MND = 4
Pd        4.17845536427335    1.11714570213487    3.23272305224515
P         4.35721081188120    0.77660020343377    1.02069675042907
P         5.97761179234189    2.42521010769359    2.92886096045380
P         3.92282369321119    1.67675633917764    5.43731823744258
P         2.48690153120523   -0.39996598987821    3.50845979458091
O         5.83535816916803   -0.24739445256869    1.25391203069404
O         2.82393683463262    1.85437747113669    1.00320771366467
O         6.82121003614104    1.01151257656225    3.82416890987332
O         4.97671663068616    3.68151179895215    2.08788700038898
C         3.55949213234605   -0.63400014821859    0.18909758429503
C         2.32911253124560   -0.75306527457424   -0.40893883548370
H         1.64099539308350    0.07876023136795   -0.43841469391739
C         1.97936901525124   -1.98026387267112   -0.99644560695268
H         1.00912308788008   -2.06877976168881   -1.46542662348355
C         2.82673441743518   -3.06070245258140   -0.99104119685110
H         2.52238950260114   -3.99285024903740   -1.44557364587720
C         4.10790672148506   -2.96652384963734   -0.40583569385427
C         4.44182176859138   -1.72554241194894    0.16424345390693
C         5.69719961840147   -1.47956067603347    0.77070327675857
C         6.62332284372819   -2.49575678048108    0.82303428715311
H         7.58681854814905   -2.33401825843911    1.28070516465737
C         6.29039154277978   -3.73909555713794    0.26216551088707
H         7.02798157414381   -4.52824046112537    0.30495380289349
C         5.08108014248791   -3.98580660232018   -0.33826596852362
H         4.86639027489730   -4.95392319260472   -0.76613818040229
C         4.98460826778415    1.75166655950964   -0.37136797232400
C         6.11690065569237    1.57248997278004   -1.12521670662334
H         6.81874755324733    0.78206971153751   -0.90398840091039
C         6.36000037252546    2.45693940341307   -2.18817795557786
H         7.24935902733916    2.30989969640714   -2.78484438790113
C         5.51899663096428    3.50375802152582   -2.47114098205388
H         5.74875402236434    4.18274064777426   -3.28064382246603
C         4.34361372870722    3.70863087931750   -1.71728529085914
C         4.09151542527983    2.78498595547520   -0.68893188255278
C         2.92954820415647    2.84032377810585    0.11934494763141
C         2.03547113908842    3.86791015465276   -0.08075640927328
H         1.14691169658528    3.95188508895114    0.52672404935852
C         2.29433183730723    4.80786698187695   -1.09094919173430
H         1.58104232853465    5.60832292255086   -1.23476062881523
C         3.39983402266954    4.74168245632773   -1.90016665905417
H         3.55757629041264    5.47497552032609   -2.67754812984560
C         7.36292440908120    2.43222305812490    1.76123853947732
C         7.63342763195132    3.29541403005952    0.72963699239444
H         6.95547226841769    4.09711044504022    0.47672509224048
C         8.80981553542811    3.10367027446056   -0.01236445791135
H         9.02395480309516    3.78869280093384   -0.82074368606634
C         9.67252622444980    2.06804225976848    0.24532154603728
H        10.55690679699309    1.93274517744842   -0.36186539089401
C         9.42391014160981    1.16890491877394    1.30433650449734
C         8.26730365430699    1.40498018425129    2.06636343163968
C         7.91476383374917    0.61096236543383    3.18517531957087
C         8.71309961839031   -0.46260899555291    3.50981155077730
H         8.46730730384066   -1.09978844349278    4.34600813614734
C         9.85734986320753   -0.71763576873401    2.73732649225042
H        10.47373749130423   -1.56471640717003    3.00698564637698
C        10.22378358046332    0.06637250737640    1.67320435550349
H        11.12015045121480   -0.15227207240195    1.11138068804160
C         6.47518765492008    3.69016879744035    4.14139977800803
C         7.33578569510163    3.62949383583085    5.20974179728222
H         7.85146777698874    2.71383421488166    5.45858454969462
C         7.54569574891398    4.78879672585832    5.97489880715796
H         8.22407324189239    4.73546427670526    6.81521194018489
C         6.91873860403485    5.97645259167121    5.68888132212747
H         7.09726426163781    6.84745130531320    6.30337606953002
C         6.04536932301373    6.08058373289905    4.58476240090440
C         5.86053805553342    4.91200120255139    3.82532077794005
C         5.02793828750848    4.87163589032814    2.68102684770412
C         4.35694517165745    6.01197854255058    2.30364209620474
H         3.71537686431281    6.00680405946096    1.43629324028417
C         4.53250285141192    7.17887396029948    3.06444645654455
H         4.00414901385630    8.06983022045929    2.75514644005514
C         5.34600492230749    7.23308425903917    4.16856393569009
H         5.46170383252966    8.15310158832942    4.72227454903578
C         2.33581315633117    0.87455528344279    5.97061463352689
H         2.29355875538483    0.82046184417077    7.06327896012897
H         1.51877076961915    1.51794432224634    5.62736612068810
C         2.21011708540290   -0.50621409109674    5.34121246758637
H         1.23034537966834   -0.95004992867642    5.54531573359355
H         2.97938512451438   -1.17279281960697    5.74512733343964
C         5.13583690805811    0.92941492649001    6.57970534227212
H         5.29259809243617   -0.11190564279962    6.29870387192140
H         4.79345168972475    1.00044785783737    7.61204301155218
H         6.08088389371008    1.45517212942261    6.46013815686416
C         3.69744966944739    3.35380176407423    6.14008510636906
H         3.00292838836041    3.91638428370802    5.51665284146833
H         4.65122317709050    3.87746097170240    6.15212013450220
H         3.30714625248737    3.28044493221364    7.15519605685657
C         0.84733599244191    0.12672448322972    2.90098117499938
H         0.67897578605359    1.16433833740265    3.18875537184193
H         0.06071606168449   -0.51382246901226    3.29963280085684
H         0.85777220222243    0.07712125689339    1.81411282536217
C         2.51735338512192   -2.18006680945415    3.07528115941473
H         3.48037986472441   -2.60421836898882    3.35857924670963
H         2.39169622480095   -2.29830332950462    2.00092339162895
H         1.71542204687298   -2.70198266165280    3.59741482796442

