55
CSD_code = GUNJIJ | q = 0 | S = 0 | Stoichiometry = C25H26ClIrN2 | MND = 8
Ir        3.02481144249508    1.66246327335248    3.26990043584728
Cl        2.12209658054119    0.64285135916099    5.18204323640653
N         5.26230056654599    2.67288411733591    5.16695598975986
N         4.08758935847584    2.82354446396897    4.54926517598294
C         4.12827048121500    1.70289102551567    1.34750412399485
C         4.67120930634521    0.55079630593159    2.04204095081079
C         3.62940175462483   -0.34851585182330    2.26632699499518
C         2.40843109369880    0.22530554652700    1.72452008733250
C         2.75607375349446    1.43431375966986    1.05315540229368
C         4.94192756798478    2.79002153750302    0.71802504007298
C         6.12147016974786    0.35042390893611    2.35573371562235
C         3.69742044167310   -1.69914553994728    2.89889575389554
C         1.13089347861863   -0.54501271160599    1.59284072096060
C         1.91001524743817    2.22679435378150    0.10677077387598
C         5.48422620296216    3.67643432793791    6.05409418499652
C         4.38778917220350    4.52051195281145    5.97073958479934
C         3.53162640408756    3.94791884253945    5.02134924199486
C         2.22086536189101    4.22896754491409    4.48155919395142
C         1.74800870323435    3.21659067703399    3.61906142701805
C         0.46983559235012    3.36000446853553    3.10103921503140
C        -0.29627760714004    4.47848132347955    3.39571800234559
C         0.19252991381001    5.47301898956768    4.22772087754841
C         1.45178925822363    5.34748549457348    4.78136391798486
C         6.68675410927473    3.76782916500340    6.86083615122528
C         7.84758176859736    3.07443123613335    6.51314939247351
C         8.98435185496283    3.17381747722100    7.29226917074339
C         8.98497925320201    3.96448622421205    8.42943295692915
C         7.83927446157675    4.65916701144369    8.78241435724129
C         6.70017597890162    4.56378774154338    8.00741392981819
H         5.80479360201231    1.83177014057510    5.04951805323125
H         4.33598913630117    3.67773271098978    0.55234421346742
H         5.32810461030973    2.45533185761736   -0.24717434757860
H         5.79034647856343    3.06632050058089    1.34134510808243
H         6.61691961599387    1.30188539179513    2.54665259914079
H         6.62644307438832   -0.12013272438787    1.50934494660522
H         6.25257395311583   -0.29329596176914    3.22437990499323
H         4.71660597738448   -1.95270135941165    3.18064047338103
H         3.32984947812716   -2.45591207998193    2.20505875751539
H         3.07352946736142   -1.72932208682925    3.79274481897814
H         0.88120927890284   -1.02867650885418    2.53504911224943
H         1.23535558386198   -1.31729346809417    0.82766161438401
H         0.30507228223696    0.10489415053371    1.31427414857778
H         0.87212203478539    1.90941152616468    0.14998384770853
H         2.27056102712635    2.07771901982374   -0.91261666627397
H         1.95186376343839    3.29117910334809    0.33040542232360
H         4.22719384476577    5.42865051460244    6.51225222046204
H         0.05012670736206    2.59190341731581    2.46880376352880
H        -1.28817108035736    4.57013023141601    2.97622572445263
H        -0.41499808369596    6.33718348428581    4.45307243065512
H         1.83917447987584    6.10361427786372    5.44842918300492
H         7.87262664897611    2.46821833905759    5.61904835505279
H         9.87565212083615    2.63302826758132    7.00991974388910
H         9.87442314363794    4.03923653638536    9.03651313557053
H         7.83442825310173    5.27654253362069    9.66817386846691
H         5.80628293055455    5.09513416050610    8.29330956218846

