95
CSD_code = GUNKAB | q = 0 | S = 0 | Stoichiometry = C46H40O4P4Pt | MND = 4
Pt        4.16791010464365    1.09809490547833    3.26304243808897
P         4.31875512992811    0.78958261197286    1.00988902510317
P         6.02151400484778    2.39129334542554    2.97061965154490
P         3.95945277320140    1.58228441280332    5.50462312968159
P         2.40165600543072   -0.35484748905758    3.53029448929316
O         5.84454505682598   -0.18867288335799    1.22405436459072
O         2.76851885407373    1.81172572710125    0.96111380836574
O         6.88198210934705    1.02660010384314    3.89175527693136
O         5.03546012172906    3.63711884621399    2.07211392434724
C         3.57789953537711   -0.64402528173710    0.16792597547008
C         2.34660380438970   -0.80514229632168   -0.41787240674834
H         1.62345243492381   -0.00347891849603   -0.42420749500269
C         2.04015282587230   -2.03557247358911   -1.02238842433168
H         1.06901567739607   -2.15575197507787   -1.48251409097911
C         2.93135269590315   -3.07972491224930   -1.04436434191937
H         2.66142989872234   -4.01553002676131   -1.51303049669923
C         4.21275416926878   -2.94293761357161   -0.46854299934933
C         4.50154534548539   -1.69946932720151    0.12036984540378
C         5.75170531593069   -1.41377467142205    0.72100406563906
C         6.71843447200641   -2.39307333300687    0.74584816488021
H         7.67865102803750   -2.20119312135887    1.19882201252387
C         6.43101735686703   -3.63814547934263    0.16497006690201
H         7.20030961178017   -4.39741754536011    0.18657307541254
C         5.22667550122331   -3.92303687928474   -0.42869000117639
H         5.04679413470154   -4.89127532735773   -0.87217355023406
C         4.94836982302827    1.78965191929739   -0.36572978941560
C         6.09054451589497    1.64038865762070   -1.11072254907416
H         6.80341727927382    0.85840810204504   -0.89629965318055
C         6.32872162435710    2.54299714854562   -2.15993867833987
H         7.22689496746543    2.41884517112175   -2.74864204380510
C         5.47346650223687    3.57919625398931   -2.43893802586647
H         5.70067537162567    4.27324712086404   -3.23632765439001
C         4.28435296117794    3.74972186615801   -1.69846804417753
C         4.03989374673822    2.80787649236003   -0.68562165718025
C         2.86195763154470    2.81829320028119    0.09879903020097
C         1.94295706937153    3.82236425231639   -0.10310970399564
H         1.03919239158764    3.87135572361608    0.48514158432659
C         2.19559975918161    4.78501011520773   -1.09399439257595
H         1.46330243461894    5.56768822271120   -1.23974000388507
C         3.31699163878087    4.76061053452904   -1.88327923013614
H         3.46829229694849    5.50845312731000   -2.64803943425252
C         7.40217870868766    2.38507448463026    1.79487351857046
C         7.67337866578342    3.23520694629016    0.75298256040525
H         7.00077567448684    4.03890364025936    0.49346514245989
C         8.84708237294996    3.03036998319510    0.00954891381527
H         9.06126110479577    3.70631683136564   -0.80649159852941
C         9.70632189662338    1.99365095499396    0.27408959483663
H        10.58695567568407    1.84710919715541   -0.33595657510688
C         9.46035827836480    1.11146065948978    1.34770970710964
C         8.30843590960537    1.36369742966002    2.11069697025098
C         7.96619097768282    0.60069967127273    3.25252189483823
C         8.76485857268448   -0.46532511809606    3.59780801597191
H         8.52845707577978   -1.07913278501272    4.45371867586872
C         9.90102617376686   -0.74256843053106    2.82019604599637
H        10.51764021133125   -1.58456742686182    3.10467423190092
C        10.26034623266842    0.01514790337716    1.73489614244969
H        11.15217415469320   -0.21802806386090    1.17161350317087
C         6.49962262141192    3.69299265094056    4.14935082199830
C         7.33567879578766    3.65701679690441    5.23782815149083
H         7.83331237231521    2.74388320497097    5.52800743830289
C         7.54409690277318    4.83711319089847    5.97077861428745
H         8.20431659056348    4.80227694746274    6.82643588604853
C         6.93815438849093    6.02203177919223    5.63347530500352
H         7.11577582304878    6.91072893551534    6.22242783386127
C         6.08778063918240    6.09992350240143    4.50959698756956
C         5.90296044273133    4.90968880049274    3.78461831408376
C         5.09160428537798    4.84239954055687    2.62596162161932
C         4.44487235077395    5.97949463283406    2.19829079531787
H         3.82028284846361    5.95449697415984    1.31891883417406
C         4.62140610114532    7.16799802014356    2.92391036963727
H         4.11199096900923    8.05544938154579    2.57507859011713
C         5.41264491147692    7.24727865797525    4.04269842067578
H         5.52932606975474    8.18301512710417    4.56928126566989
C         2.35169733070613    0.82943334835660    6.04419827075146
H         2.33309080765096    0.72828973411493    7.13356942920464
H         1.55888262171065    1.52491914135345    5.75314113174165
C         2.14081334331619   -0.51436966923098    5.36052398312452
H         1.14094315798647   -0.91029873667505    5.56256779340777
H         2.87432817429874   -1.23873939068818    5.72683328179636
C         5.16516607934320    0.80259763958216    6.62893208091041
H         5.21394773310240   -0.26434004049428    6.41991691441043
H         4.89035471177024    0.97302455452930    7.66951297265441
H         6.14282372167243    1.23066353092324    6.42192502828410
C         3.79555813300204    3.26613659538174    6.20242032708064
H         3.11603898121961    3.85001545252988    5.58350322190031
H         4.76685406487858    3.75587817136481    6.20353419202764
H         3.41197709920530    3.21115560477038    7.22122793752303
C         0.77184939137857    0.21300630250939    2.94132145993368
H         0.57539249959483    1.20928510807669    3.33275649266790
H        -0.01293196498550   -0.47717648910105    3.24978923681923
H         0.81094461238651    0.27959496686098    1.85693752643584
C         2.41213550954275   -2.11661927019908    3.03522357195445
H         3.36649423377015   -2.56383406225917    3.30897021518648
H         2.29343618129034   -2.19224964509877    1.95655820607962
H         1.59971779759122   -2.64771517330956    3.53130547023678

