72
CSD_code = GUNWOB | q = 0 | S = 0 | Stoichiometry = C37H30IrNOP2 | MND = 4
Ir        6.73830052009651    4.55034514468307    2.73193246617428
P         6.13884811008557    6.65906839526579    3.41435168810535
P         7.67786173756698    2.68597801148574    1.77278229638796
O         5.10716134761458    3.06551637054058    4.77573755465310
N         7.76558496628619    5.61226030423432    1.37618703525821
H         8.32840905379075    5.20372691071298    0.63266980182378
C         5.74787401098082    3.63039326104546    3.98635925342069
C         7.04096270271585    7.70701185114589    2.25937028466535
C         7.78666525875237    6.95536464668734    1.31704911698822
C         8.52135046123487    7.68419142243496    0.35877104071739
H         9.09469170050960    7.14068387842163   -0.38285203723259
C         8.51789339884975    9.05852386873673    0.36489626837534
H         9.09175395933507    9.59286399083176   -0.38024628963032
C         7.79374892309449    9.77633757764957    1.31331280614453
H         7.80742013442477   10.85572554238952    1.30552039059814
C         7.05773318161261    9.09238574448692    2.26195528737500
H         6.48703703325181    9.63195999975613    3.00638717856690
C         4.41018745649883    7.22127115155093    3.36835145239855
C         3.89406255442328    7.91930147926328    2.28313035934938
H         4.54398483459837    8.18341981560856    1.46024641006985
C         2.55785481797937    8.27947015171156    2.26447135767350
H         2.16111478500431    8.82922893367461    1.42304401487661
C         1.72999285647484    7.93701497816043    3.32039411675260
H         0.68823277831193    8.22226430907996    3.30449705323120
C         2.23615913585524    7.22217974815845    4.39564702499704
H         1.58781482971163    6.94671835143488    5.21468071560777
C         3.56851885534610    6.85865095681997    4.41775447515548
H         3.97273637236559    6.29329253669748    5.24699308828304
C         6.69605499792977    7.25498019754564    5.04252515776272
C         6.18896369664905    8.40247984049573    5.64206933897059
H         5.37348146319368    8.93989728355314    5.17798664953600
C         6.71807987780130    8.84550872331699    6.84089157283894
H         6.32077241060445    9.73608923317030    7.30633939526994
C         7.75406705350205    8.15233008411930    7.44550548920023
H         8.16268961363024    8.50284679119147    8.38197036214590
C         8.26173127904418    7.00737983550133    6.85229073228196
H         9.06539580447511    6.46336071689844    7.32701651005849
C         7.73412297231276    6.56081813055126    5.65557230010088
H         8.10631322540756    5.65920380834609    5.18126752596336
C         7.64213034960116    2.74906985363907   -0.05019904667138
C         6.42364238042299    3.12735675208612   -0.61116986033750
H         5.58906604530692    3.33584624021160    0.04841528863794
C         6.29133247319632    3.24595559169511   -1.98076112806318
H         5.34447210082198    3.53860319496753   -2.41037554048350
C         7.38141261250857    2.99993183934955   -2.80217062225242
H         7.28403557689635    3.09893561532891   -3.87322884530837
C         8.59798509969568    2.63851709172136   -2.24888184071369
H         9.44966493614124    2.45688065756696   -2.88845971639204
C         8.73348734139646    2.51398126063446   -0.87583029455182
H         9.68945111689717    2.24184087862763   -0.45075673072000
C         9.44230664753009    2.40853926147327    2.14603999838598
C        10.16838242963526    3.45202289797297    2.70830094412815
H         9.66572697777998    4.38897820062694    2.91528627530970
C        11.51090696892925    3.29012008963410    2.99989925973978
H        12.07127016085160    4.10423448647750    3.43578465061996
C        12.13390159836398    2.08152094241186    2.73571430872971
H        13.18148446633445    1.95168920807496    2.96433788449798
C        11.41266972514416    1.03452763945339    2.18284005020046
H        11.89874690463610    0.09087850270525    1.98149277004177
C        10.07081817265044    1.19299265234510    1.88902525421945
H         9.50518108270107    0.37449205010500    1.46431590235284
C         7.01985810652758    1.01712411315515    2.11242927304014
C         6.45271129669888    0.18966120857989    1.15246021317854
H         6.39320197647568    0.51305519054724    0.12262663130756
C         5.96409595068244   -1.05444790909930    1.51528102505620
H         5.52414802263581   -1.69566139409296    0.76519418541367
C         6.03761963856041   -1.47684284833392    2.83118166538154
H         5.65463931228751   -2.44772906503192    3.10862773204859
C         6.59890081530384   -0.65139357390666    3.79401232824483
H         6.65230149438784   -0.97752136381026    4.82203771656568
C         7.08336864179284    0.59102461952229    3.43716440250106
H         7.51535140593508    1.25057213799352    4.17893662098839

