92
CSD_code = GUNYUK | q = 0 | S = 0 | Stoichiometry = C44H42ClIrNO2P | MND = 6
Ir        2.24091722721303    9.85073567956786   20.22822077011840
P         1.95905373629257   11.92862180766592   21.17110075137872
Cl        0.18486047325796   10.36845059529647   19.32965581667514
O         0.79519855542978   11.92770696470200   22.28624977921904
O         3.27260583206383   12.30710205177534   22.12955123092392
N         1.59709546885559   13.31014947920193   20.33479978013697
C         1.84645802559518   10.90196923552768   24.16784233628851
C         2.09882494728316    9.72598560614714   24.93266230499670
C         3.12319182901914    9.66160497211883   25.90055302415987
H         3.73287546562191   10.53428424212640   26.07744522737512
C         3.36061955167477    8.50867648038846   26.59659083126360
H         4.15271780420162    8.47430077043995   27.32984147651874
C         2.58683938535972    7.36287414979554   26.36323123678030
H         2.78212838863245    6.46344939480919   26.92819920909354
C         1.60469661774437    7.38478466337954   25.41340160459441
H         1.01676478496859    6.50116310997630   25.20977406860433
C         1.34510364142128    8.55179120750234   24.66489037227808
C         0.37527223551074    8.56363054852677   23.63973005058754
H        -0.21020844849542    7.67346430721538   23.46307339622876
C         0.20395241797120    9.67043987957390   22.85801917614047
H        -0.50089608216512    9.69117535553233   22.04181812951795
C         0.94739363492761   10.82907014872870   23.12808270944734
C         2.55590129885722   12.16969887403724   24.42276543492125
C         2.53142685237392   12.77179926724920   25.71262037039323
C         1.69512965337783   12.29806056334655   26.74583434921272
H         1.04406925490756   11.45920172121460   26.55169640130717
C         1.68469963492903   12.89957244287747   27.97368232877519
H         1.03157323320926   12.52989301809760   28.75053096176877
C         2.51217870240254   14.00083375065336   28.23523685918740
H         2.49826018019526   14.45777134607710   29.21376307334327
C         3.31581745178239   14.49822272853964   27.24824093807872
H         3.94232342536877   15.35992109417100   27.43007407204843
C         3.33341430297309   13.91431251162655   25.96551639692254
C         4.10888905486865   14.45529208982611   24.91920788455383
H         4.73599001736344   15.31086981251049   25.12172171013647
C         4.03574561631606   13.93565732119266   23.66206545678989
H         4.58084030650320   14.36766147700236   22.83760717685286
C         3.24472788464940   12.80105791734309   23.40545311214550
C         2.28665404041326   13.41514349773618   19.04714168568791
H         2.90971209125843   12.50836650645628   18.98833748456143
C         1.33622209619031   13.38713158391548   17.85463901731367
H         0.76902025439831   12.46001251013075   17.87941306196978
H         1.91091408980750   13.42413359403199   16.93200306688452
H         0.63725267206207   14.21851242450814   17.86558995813682
C         3.22237915442161   14.60270382787852   19.08711151625100
C         2.94207688233597   15.81513625092660   18.47097535414002
H         2.04928415982037   15.93401032431768   17.87652307438472
C         3.80734609334775   16.88954080310030   18.60469948060155
H         3.57336473975428   17.82676871990812   18.12093472149120
C         4.96223587058372   16.76788041200616   19.35584630708163
H         5.63245778212316   17.60807328876708   19.46215026191694
C         5.25558871704052   15.55955560571397   19.96724934843289
H         6.16021979794388   15.45388807960254   20.54891920900783
C         4.39327301598652   14.48844671115201   19.82992930648057
H         4.61649789833107   13.54571869529084   20.30880435771564
C         0.59506660738409   14.32156727281152   20.67648803712722
H         0.73727093312457   15.12789670893607   19.94598933670802
C        -0.82798099401164   13.78763217380301   20.52338502257972
H        -0.99785376703527   13.47875024329537   19.49585776285143
H        -1.54362459109332   14.56443093321655   20.78508055524654
H        -0.98855673668349   12.92129360764932   21.15482528930136
C         0.88187453611822   14.93100269398878   22.03424225378494
C         1.87743873404419   15.89907522331899   22.12416157212377
H         2.42968688535072   16.17774933996283   21.23795508846297
C         2.16203661579176   16.51815991085853   23.32677279761531
H         2.93102049382489   17.27581361369511   23.36974715530736
C         1.46102341378083   16.17182361959355   24.46866080422723
H         1.67883559481775   16.65237442827889   25.41099206919594
C         0.47566637232031   15.20453393685951   24.39347743763231
H        -0.07297347124385   14.92458760557118   25.28130729752215
C         0.18070878015436   14.59651651871301   23.18539815992525
H        -0.60423799676917   13.85900157343903   23.14867321143897
C         1.90134748064451    7.75207209204999   19.99242272594682
H         0.83414347267551    7.59001471878718   19.85446240574659
C         2.63113129892065    8.20018923979374   18.89575675020503
H         2.08403073106120    8.38686662296455   17.97389071358346
C         4.10636275029984    7.90948265677432   18.71498578629598
H         4.32103216241380    7.80028720654741   17.65076088126730
H         4.34102781841554    6.95756699061497   19.19251605371164
C         4.99368743587225    9.02967563105903   19.29008160766283
H         5.95538249872379    8.61948756113853   19.61622773964579
H         5.20373384564087    9.75602517087275   18.50243568889094
C         4.34272498630171    9.76670829570592   20.43927048983475
H         4.76313027925388   10.75788522150601   20.60216517110338
C         3.75400698901860    9.14185132852309   21.54830393970299
H         3.73737554114108    9.70818527816298   22.47668011599681
C         3.74422004046856    7.64077318050884   21.75032695785045
H         4.64774809450230    7.21584748071470   21.31034353660590
H         3.77330538625900    7.42896402198826   22.82096275262185
C         2.48968261053711    6.97788519298626   21.14942961763768
H         2.72151392374255    5.95921098884619   20.82114140646399
H         1.72755952594060    6.90363229521034   21.92600478735538

