78
CSD_code = GUNZUK | q = 1 | S = 0 | Stoichiometry = C25H40B10NPRh(1+) | MND = 6
Rh        8.97690577646308    3.86684087017802   12.93144425991553
P         8.34339569066235    3.33924371632807   15.07728369300906
N         8.82131117512340    1.58302582653690   12.31505542466589
C         9.37264013114873    1.91309442756971   15.70178352541405
C         9.51209775613569    0.70920655407827   14.65049148610094
C         8.56687943843644    0.68580335453554   13.46285390621049
H         8.53783052993209   -0.34925392264637   13.08612231814909
H         7.55691713403290    0.91973646968045   13.82074016037958
C         9.95512466208124    1.06729041449318   11.53662654697577
H         9.80151572179398    0.01022313928995   11.28899369149529
H        10.88237888644491    1.15780085583297   12.09448915615020
H        10.05481531898553    1.61660033803216   10.60318541599360
C         7.62477842694763    1.49156496005368   11.46105458628407
H         7.74590410836125    2.08853580792309   10.56072707726646
H         6.74412653558778    1.84305914564907   11.99610149255349
H         7.44929445756893    0.45244951030684   11.15627964763144
C         9.01885018293830    5.99646848754056   13.34734626531093
H         9.00979128311912    6.18762798317508   14.41501952084767
C         7.78687527792030    5.63934636838937   12.79455148574542
H         6.94773949947428    5.58429130238400   13.49007105736716
C         7.35746152051651    5.86217962191048   11.36889896502011
H         7.00197515129516    6.89247596724213   11.27105157848426
H         6.50300927590418    5.21272839333653   11.15734191197152
C         8.46798839955149    5.58499647158849   10.34323282479776
H         8.00407207137030    5.35768585840368    9.38214245914066
H         9.08955750724319    6.46678406932446   10.19757965406004
C         9.32800512086327    4.41785636430306   10.75833204908448
H         9.17490870329705    3.52844902802459   10.15564471794457
C        10.50205984930775    4.50360897249172   11.46298694731222
H        11.20303230116233    3.67194426216534   11.38554408284119
C        11.13190841757762    5.76805398701839   11.98547628564140
H        11.66128156153977    6.25962731906524   11.16341542695009
H        11.88372400682312    5.49470987855316   12.73037009226716
C        10.12273024420433    6.73447269618701   12.62313926084805
H         9.68979949404236    7.39846885102792   11.87613249358194
H        10.65094935992618    7.36302322358240   13.34097950865815
C         8.64026687803807    4.61541625459886   16.35431118799831
C         9.88347243946574    5.25347415856794   16.33881461086171
H        10.60956093319185    4.98752998738530   15.58172645497841
C        10.18753740690617    6.22886663646624   17.26817643770763
H        11.15644369622544    6.70344042687710   17.25177288282265
C         9.24603446059747    6.59991275948270   18.21510552249837
H         9.48179815708351    7.35871317784297   18.94428636721030
C         7.99575595494516    6.00772091816784   18.20784135185911
H         7.24952659665562    6.30979013222031   18.92598200805751
C         7.68872519390395    5.02623320974133   17.27986533726540
H         6.69991456880383    4.59499233911787   17.28151047122397
C         6.59760662154502    2.87462582671319   15.35687049705790
C         6.11326354914850    2.39198749892096   16.57171307023352
H         6.78165952737832    2.24699912344038   17.40642155947492
C         4.77091141293570    2.08666504751665   16.71057820251010
H         4.40589918974565    1.71237147192725   17.65439003914899
C         3.89732088452341    2.26033955281715   15.64863664917853
H         2.85203254258524    2.02070954486645   15.76389079150785
C         4.36857228410650    2.74487944343060   14.43993926233344
H         3.69256817985019    2.88604640990318   13.61035312877718
C         5.71037244469076    3.04975799144803   14.29856595406223
H         6.08336472182202    3.43734514763389   13.35735997025982
B        10.84973924958071    1.76950019640339   14.80052306171634
H        10.99156586476356    2.58437629590707   13.94848398847747
B        10.88630222758365    2.16781012837877   16.50857733277212
H        11.17948185779617    3.24615469910473   16.85099494999049
B         9.55196391269745    1.35964393727972   17.32193339450476
H         8.96771201645756    1.94131062069419   18.15835595924666
B         8.68395528283279    0.39397706467390   16.14443721503821
H         7.51920947105877    0.28595751834864   16.05926437023701
B        11.09249289317497    0.03345589507426   14.63495269712510
H        11.49507768379462   -0.40994163802402   13.62621731369396
B        12.00684566077929    0.96066151441197   15.83993204722736
H        13.15444377800853    1.17544633931444   15.73517333370145
B        11.20824076616685    0.69943757439435   17.42775696845613
H        11.81250877225518    0.74272107564552   18.43071082376861
B         9.82767480854840   -0.40081606451297   17.19774251653468
H         9.45969702866838   -1.15196201028721   18.01799186829631
B         9.77507469033910   -0.79371652113070   15.45806136390450
H         9.30268254340298   -1.74453934910508   14.95701314608767
B        11.34039441672166   -0.64111653495479   16.26698369318528
H        12.03279445342380   -1.57009837427045   16.44049322293970

