43
CSD_code = GUPDOM | q = 0 | S = 0 | Stoichiometry = C15H22NO4V | MND = 5
V        13.64900224762311   11.55052313870542    7.12085444254537
C        12.11594357287492   13.99859691578511    6.92771070701749
C        10.72594550895711   14.25924554314017    6.79927633996619
C         9.76545677778414   13.09898712461252    6.56239347210678
C        10.14463710337105   12.34699892470303    5.27776774510283
H        10.18294080574361   13.03587724497399    4.43501162407379
H         9.39835998658072   11.58363367287820    5.06374495409274
H        11.11340886662343   11.85814670456887    5.37622933621232
C         9.84532166770952   12.15200659521920    7.77116282643500
H         9.17704874430880   11.30544946121542    7.62258036443414
H         9.54138255127218   12.67659987930957    8.67562110262865
H        10.86002847122473   11.77568145838704    7.91705864651273
C         8.31162758123397   13.56497557973311    6.41983886721446
H         7.96761091344229   14.06730648421000    7.32070942598965
H         7.67269829893086   12.69931282977206    6.25769885906019
H         8.19408356056625   14.23271003427290    5.56928765941205
C        10.29329924018396   15.56587949832942    6.94039168651079
H         9.24638651712066   15.79966836732035    6.83869699723588
C        11.16649969821132   16.61307093767807    7.21592772814124
H        10.78323446910464   17.61776349353308    7.30935297396939
C        12.50596797312105   16.35972406171501    7.38768824601451
H        13.19096503040626   17.15940348957888    7.63183676106580
C        12.99864585615503   15.05892032688159    7.25811818367684
C        14.40029720947501   14.80431862954575    7.49101404106954
H        15.01410895016017   15.69926983190901    7.69631475775415
C        16.32523780956576   13.49859098795515    7.76379761113332
H        16.41988506562772   12.95143257891917    8.70964941348226
H        16.82963959010146   14.47777696845269    7.86130403679059
C        16.98181725772484   12.67889874977562    6.64764669435069
H        16.76651136651752   13.15014850402624    5.68430051561731
H        18.06253508472449   12.65720696933147    6.79819402864135
C        16.44829049696093   11.23754632835754    6.62592948718294
H        16.96499272297038   10.67462768270326    5.82779601341291
H        16.66675719487765   10.75579316450572    7.59615066326238
C        12.19297579761319    9.10838201408947    7.09722109750923
H        12.27165969382554    9.11796353240978    8.19738493892930
H        12.73104430804726    8.23122878856265    6.70558028242761
H        11.13427876597650    9.02931112340278    6.80709892296111
N        14.92536894511024   13.65079249879016    7.50044842825752
O        13.73677616214954   11.35526335553198    8.63501775348942
O        12.60194100797410   12.80431372849882    6.74264626030416
O        15.09616059905842   11.20109501156914    6.40967946714493
O        12.73972652898938   10.26055778513888    6.59126663685596

