101
CSD_code = GUPGEF | q = 0 | S = 0 | Stoichiometry = C52H37IrN8O3 | MND = 6
C        -0.26663565811262   12.46327531857374    8.74946713383779
H         0.73538066725304   12.26719885607691    9.10163132575453
C        -2.84250128444476   13.00444288424086    7.86900944877282
H        -3.84791694584605   13.20198272640817    7.52597925155415
Ir        3.11657049786860   16.33765360540917    6.34104362087146
N         3.96105685885547   16.40504165852480    8.20286614883321
N         2.25441931554438   16.29241752824395    4.48208366350483
N         3.62223994709828   18.21448715054020    6.09437667391759
N         1.39133975362796   16.73746537474193    7.17226541505486
C         5.78540289488474   16.38532664514418    4.98731605359337
N         2.82694345322663   14.44202737639164    6.48579241982367
C         0.49303375903819   15.79907710316460    7.59861368401932
O         1.78133455029415   19.43839478160552   10.03712624053247
N         4.75997512756121   15.71717555487626    5.55800416558522
C         5.11632368264502   17.03978711549141    8.41471622392717
H         5.63447906156894   17.42252578550939    7.54848191525465
C         2.95257366350451   19.26344625382395    6.63701194160216
O        -0.27595586417158   23.67138249970718    7.13119496511691
C         1.75889396738525   13.73259372746627    6.90982886229019
C         4.98415759222560   16.71925439744939   10.77709388591560
H         5.37420760328816   16.85211769362305   11.77467418588125
C         1.08860008303889   15.67427627129224    4.27479091411003
H         0.60521932071254   15.23431492288593    5.13364637184612
C         6.07927140462661   14.15921456814052    4.66934597079711
H         6.47243072918799   13.20607908111780    4.36997178169629
C        -0.54820453180985   16.50594039115962    8.28928745208780
H        -1.40028482952853   16.05333202634623    8.76037437673852
C         0.71857627182690   21.44199731672963    7.20734569539195
H         0.72098680608031   21.33210521117822    6.13481161705718
C         5.81180896293068   17.80671059495005    4.99348049644399
C         4.87888801899033   14.37503400180229    5.38936462448362
C         3.76883702861353   13.64312579387109    5.92145414783839
C         6.80425842460169   19.46513325174730    3.42162543007305
H         5.80517052172045   19.76237206931058    3.13734162551507
C        -0.49019365485844   13.55121709451159    7.90172208954236
C         9.36505589477875   18.66126893270614    4.12745676411019
H        10.36642755181764   18.35992761382562    4.39929092076982
C        -0.29586907378596   23.62683619810244    5.72789312546085
H        -0.72150205624820   24.57762902012844    5.41077003448329
H        -0.92321248343862   22.80850475338054    5.35777768828736
H         0.71225623183992   23.52514150969895    5.31138209203143
C         1.21235106320822   20.38743416167828    7.96620539428468
C         1.00394225583230   17.97480988328786    7.56956875915467
C         0.22826630768640   22.59185474525561    7.80040504586934
C         8.26966410673174   18.06723377417174    4.71485057352793
H         8.41084065467147   17.30084814717129    5.46265310107099
C         3.33018666804329   15.89666365512151    9.26388802415221
H         2.41196811776212   15.35961796428029    9.08164410010979
C         4.80515364239106   18.63635970035539    5.55325443481655
O        -0.27468575036405   23.84534619384155    9.71864656858112
C         1.13033240066514   16.14381796577887    1.93331149115134
H         0.69770841646237   16.08234827034862    0.94667939510483
C         0.49809077345657   15.57794794118563    3.02832854921298
H        -0.44294493655752   15.06181617699755    2.92365844573336
C         9.18422214521908   19.66732841561559    3.17559567285893
C         2.85947354954166   16.84238409985655    3.42580145167760
H         3.80019519307995   17.34126274769477    3.60229889064962
C         3.74323771496881   20.43807286557406    6.41829691350948
H         3.48351671091512   21.42812079527319    6.74040073946164
C         6.63741440472177   15.39373545218190    4.41274233967455
H         7.54219852375180   15.57827358748302    3.86502269943421
C         0.62532269849690   14.39306109945461    7.45750104955014
C         7.89175277628101   20.06525879939628    2.82605539281924
H         7.75569805210056   20.83901895761949    2.08421228173849
C        -0.23893411588250   17.83294329034664    8.26746842137537
H        -0.80769135380868   18.63906140564822    8.68953356125353
C         4.87101986300266   20.05586442751486    5.75479495617738
H         5.68782155606624   20.68813049592796    5.46186900419237
C        -1.79489063670494   13.80435362033649    7.46878844536387
H        -1.97733323249957   14.63050433739768    6.79682349241590
C         5.65614267888553   17.22035407782182    9.67448645600895
H         6.58916578300590   17.74998109756678    9.78315714149313
C         3.28143717587680   12.31593708186290    6.00521696804964
H         3.78495209716689   11.43599738411803    5.65188885595551
C         1.78606628175447   19.47122250928813   11.43939924883862
H         2.23757873206927   18.53021565095545   11.75207165125355
H         0.77172937689371   19.53523016271109   11.84783217802465
H         2.38643396147740   20.30268366156567   11.82555405730937
C         6.97148066090271   18.45772203568642    4.37601514522806
N        11.21028825248588   20.77843776188666    2.07790488633158
C         0.73765670770757   21.64518221992607    9.96610930231693
H         0.74924421942021   21.73117771383982   11.03941238360080
C         1.73496598947846   19.15496214223294    7.33462033720507
C         1.23278400882962   20.49632651505491    9.35731114002454
C         2.33655412630473   16.79080728682317    2.14689979262302
H         2.87434573301164   17.25030039514355    1.33291838798310
C         3.80139152667700   16.03318195260524   10.55623705097261
H         3.24277875167458   15.60525100097984   11.37372383466837
C         2.04114882618680   12.36616453201472    6.60557472569000
H         1.39555954114149   11.52984603520975    6.79659411338274
C        -0.30573759003824   24.00688637470330   11.11297107960762
H        -0.74997537185474   24.98610668152093   11.28433947387133
H         0.70041073389722   23.98819714383495   11.54647942720946
H        -0.92382455585290   23.24222442035480   11.59651319366964
C        10.30165335460454   20.27847582734242    2.56897670678905
C         0.23257344167439   22.68898203160317    9.20557007397586
C        -1.30649196873135   11.65711528617496    9.15780064829777
H        -1.12827788208270   10.82172163746388    9.81947373070463
N        -4.54524726018200   10.43418700174276    9.47445966938063
C        -3.67479829455598   11.10022705303791    9.13478308040806
C        -2.60602987147497   11.92218768824648    8.71979561979890

