33
CSD_code = GUPPUC | q = 0 | S = 0 | Stoichiometry = C8H17O5ReS2 | MND = 6
Re        3.02988953349614    0.46070508481559    3.63207480866642
S         4.34264842333016    1.63763230178070    5.77991745650867
S         0.42499504612222    0.23637001117977    4.41275607189093
O         3.33014477048324   -1.00253771256382    4.35547389168579
O         4.81917931953806    0.78772838286905    2.74152864434813
O         2.62218721570547    2.25117285196859    3.53968247319850
O         2.22960971070640   -0.06668332790700    1.88489047434716
O         1.62552538475502    0.51450737919402    7.15044417224211
C         5.61691164794553    1.76349174522664    3.28325075951061
C         5.87925774417170    1.62215596383696    4.78949377816610
C         3.65251133940874    3.29482224963421    5.43129611556560
C         2.41093626136099    3.17981877801006    4.51513286102873
C         0.86524680857131   -0.22419264940481    1.77591793244184
C         0.23128322163902   -0.90859495314711    2.99441706780973
C         0.21827183521522   -0.88326264109954    5.85423515360869
C         1.44108396395073   -0.82969589178740    6.75282845350299
H         2.50862897249434    0.60863802022079    7.52098429004936
H         5.18949918543948    2.76774692540900    3.08381515918421
H         6.59293746308633    1.71371441411220    2.77347919923843
H         6.53132023621581    2.41134878506964    5.16418636160661
H         6.30972918423026    0.64300136927264    4.99969875616219
H         3.38194239095530    3.74104299510314    6.38559503022088
H         4.43855443883958    3.87773442941147    4.95458458898804
H         1.54682020654955    2.88077164383322    5.13627212707560
H         2.20162530707138    4.16914592688551    4.07652046871143
H         0.67297746596771   -0.84597106640119    0.88736654322416
H         0.36881511239063    0.75328847358102    1.62491294753394
H         0.77572484719836   -1.82532725816354    3.22246094780358
H        -0.83080059427711   -1.09952633781551    2.84409955505228
H        -0.65671291273535   -0.51435767767155    6.38830258406970
H         0.04454335667480   -1.89057639527507    5.48605592028960
H         1.27342836702637   -1.47191501184208    7.63086531341732
H         2.31388474647283   -1.19459680833650    6.19686009284632

