30
CSD_code = GUPQIR | q = 0 | S = 0 | Stoichiometry = C9H13N2O3ReS2 | MND = 6
Re       10.03972939029309    0.95318598392992    9.68966556198957
S         8.37135545555602    2.70919332677001   10.96465614216102
S        11.93771831126467   -0.26201627873756    8.77112014775660
N        11.38993023835811    0.00877075121009   11.25077094521933
N        13.42297619686329   -1.13025886645554   10.83689399325651
C        11.06140922728445    3.45247968213279   10.89859160912053
C         9.63294660202134    4.03376941580080   11.07460752771944
C         7.57324403485505    3.05443963404800    9.35510086666051
C         8.56311232266945    3.01365696331713    8.18182696505649
C        11.55593503720591   -0.13748907155954   12.55429594077868
C        12.66733234842442   -0.78539661516243   13.06141285231868
C        13.60426245645746   -1.27230597119353   12.13952447843915
C        12.33004117910433   -0.51115233859513   10.42526348433237
C        14.84647550788222   -1.96789064899328   12.57899634877332
O         8.95294244607427   -0.28158685551668    9.84131559077209
O        11.05672234817709    2.43836225491245    9.99408498892468
O         9.26551438176615    1.84037185096501    8.05803807127824
H        11.73605589848916    4.26384751709297   10.57962102743770
H        11.41402462448768    3.08208634672154   11.87914301379925
H         9.40970707772816    4.75711875499630   10.29325609618821
H         9.52747865123976    4.49936095801514   12.05213530469264
H         6.84710339868037    2.24733689628363    9.25607195741195
H         7.06686676062232    4.01680748550833    9.42805954174462
H         7.98290404769466    3.16470492203427    7.25701241883792
H         9.26480252977886    3.86804032313091    8.27239777609630
H        10.78103868467470    0.27024818138552   13.19037431509443
H        12.80678195847632   -0.91045211342865   14.12198684809850
H        15.40344735283585   -2.30058801602044   11.70876867334091
H        14.59635031132822   -2.82300424181812   13.20397076011515
H        15.46359121970728   -1.29104023077440   13.16813675258617

