28
CSD_code = GUPQAJ | q = 0 | S = 0 | Stoichiometry = C9H12NO3ReS2 | MND = 6
N         2.06502425183295    0.12468012255766    7.45535372405724
Re        0.19601347341601    1.04627604120558    8.38119625381137
S        -1.04554925747319    2.53694934423984    6.46198180883337
S         1.72777685891060    0.05873551763624    9.98537641983898
O        -0.68390251354390   -0.29881062191772    7.99962222085978
O         1.16254319856786    2.59342348163764    8.29101933189804
O        -1.13408031895394    1.97392978977361    9.57275867677198
C        -2.35271112704974    2.94135153331455    7.67605362652727
C        -1.81231985803450    3.07208116610039    9.10767116608504
C         0.10215372826501    3.95566238792570    6.63136359655927
C         1.41761995668242    3.51879379149891    7.32846501283990
C         2.68772044855227   -0.26592005213859    8.58276135214744
C         3.95593101104674   -0.84952825537858    8.55036687067857
C         4.56115729724204   -1.02392932720400    7.32465962911924
C         3.89990066890584   -0.62348918217122    6.16352949585924
C         2.64616273101190   -0.05323497767889    6.27927049858268
H        -2.85189067197989    3.85175334519160    7.34449232087090
H        -3.03101503198648    2.09020008178680    7.61172653093740
H        -1.16476909960353    3.97132189783352    9.16761744189084
H        -2.67603777933838    3.24821715939234    9.76968440521525
H         0.30467975131002    4.32962191620962    5.63014108671998
H        -0.41136568029358    4.71750237704325    7.21415261638437
H         2.09606496598587    3.09240502063475    6.56612767349798
H         1.90397962448867    4.41147145993259    7.75585134061936
H         4.42533265662929   -1.14795806858067    9.47289018050273
H         5.54232388751202   -1.47051390449545    7.26151462509996
H         4.35083581464303   -0.75603004556985    5.19392114288871
H         2.08162101325443    0.26833800122097    5.41473095090306

