34
CSD_code = GUPRAK | q = 0 | S = 0 | Stoichiometry = C10H16N3O3ReS | MND = 6
S         0.85197922757775    2.34371759524642    5.19415407239081
Re        0.96903577784887    2.89799803184691    7.54878576941277
N         1.12429686116705    2.82606049899796   10.00477243237101
N         3.03659358022483    2.38740619181584    6.52894371522731
N         3.28496888842399    1.68494022689523    4.28164665818224
C         1.53272687511281    0.55985692437233    9.14562622618430
C         1.08076421641616    1.41147278876069   10.37013961404732
C        -0.09690620177519    3.56466934854911   10.34759339935361
C        -1.25914120736327    3.11632091277540    9.43915467714154
C         2.32143478518065    3.48709354238846   10.50294698775091
C         2.54871831345039    2.10147483481321    5.29900094233317
C         4.33768727463103    2.26056709094395    6.72120341222197
C         5.17673590093391    1.83830814367099    5.70614531525977
C         4.58702083899477    1.55092743429272    4.46821939407209
C         5.39511909139920    1.08572750373155    3.30506384728325
O         1.37339242428510    4.50209026506763    7.43254370930105
O         1.02886584517861    1.13039577513690    8.01609113155488
O        -0.92934430113413    3.09843765573683    8.09710454698216
H         2.63754247272226    0.54089711098844    9.10037071639309
H         1.18063202439945   -0.47666264999959    9.26661929932678
H         1.72129070392078    1.19770256154135   11.23141119736411
H         0.05453724756209    1.13087131258228   10.61270723151205
H         0.09938374421422    4.61964317540735   10.14232293786152
H        -0.35547786412067    3.43650520473544   11.40817276318464
H        -1.60587158631854    2.11020462584632    9.74095346123725
H        -2.10081042238761    3.81116716589212    9.58347567961672
H         3.19766768705934    2.90866365798914   10.21627999533160
H         2.29885049139078    3.58654487062791   11.59552417792817
H         2.39879437330523    4.47394730827087   10.04949205591822
H         4.71051275291373    2.50789071389320    7.70714836520444
H         6.23815470038186    1.73700688237702    5.85943626007966
H         4.74172569712183    0.91587551110152    2.45525232080161
H         5.91819243671759    0.16414753941097    3.55462285461047
H         6.14042735056509    1.83593024429342    3.04657483256104

