35
CSD_code = GUPREO | q = 0 | S = 0 | Stoichiometry = C11H17N2O3ReS | MND = 6
Re        3.26358070571689    1.99429851598454    3.93093824245445
S         4.63824133170157    2.58047128144053    5.82855410760861
N         1.52621468538627    1.08557512635173    2.41471016037466
N         2.36851487754909    3.66658706543939    5.35076464433637
O         3.72214561117743    3.19810023993721    2.88650932119289
O         2.20187459040968    0.90103822861555    4.94056139148806
O         4.21420233927282    0.46151053744510    3.10564129984070
C         0.89818728061336    0.56640130503368    4.74028367059036
C         0.69697471823661    0.20741918126408    3.23435905817576
C         2.39782633500862    0.37608745531422    1.47151455307723
C         3.52345919043131   -0.35361371888548    2.23105813664672
C         0.78053084074239    2.18606236654436    1.80357893366498
C        -0.11624989006797    1.78347113615559    0.63194197882054
C         3.36005341684678    3.66338971988824    6.25901086093812
C         3.30822373039167    4.46551770286891    7.40191444600223
C         2.20766217901767    5.27408325601939    7.58303683836513
C         1.18848813731871    5.27350195695550    6.63120150209803
C         1.31756619211096    4.45086278841929    5.52801333983937
H         0.24535297129244    1.42051203409554    4.99974204559747
H         0.59979004721820   -0.29033350732415    5.36521973851859
H         1.00738290961524   -0.82864642714711    3.08766211244127
H        -0.36348381490136    0.29601492364231    2.98456712784581
H         2.86219943424178    1.13184326031460    0.83358090554576
H         1.83371305691918   -0.33748741444168    0.85620603854589
H         3.10082902698390   -1.21055132565724    2.78914784607279
H         4.23519109422377   -0.75785783045759    1.49461444452239
H         1.50954496810139    2.92877544857455    1.46963151448210
H         0.17597035989071    2.64339793345337    2.59030364818512
H        -0.68463066454798    2.64991834621086    0.30512709257583
H        -0.81979354577581    1.00283584277870    0.91381123328721
H         0.47513327956880    1.42993708356093   -0.20797673175037
H         4.12286352806485    4.43507247296443    8.10602821558810
H         2.13365924517030    5.90716211621211    8.45488870581836
H         0.31951325930895    5.90056085765384    6.74657697095432
H         0.56116857276064    4.41928204077277    4.75527660625542

