55
CSD_code = GUPVOE | q = 0 | S = 0 | Stoichiometry = C22H24I2N4O2Zn | MND = 4
I         3.61045408032643   15.32444975446960    8.95989376166706
I         1.62405150146183   11.16527164416659   10.07469837762474
Zn        3.36892502236318   12.97505161896791    9.81210631102564
O         4.23178411743727   12.90778021488262   11.70528388041542
N         1.95286121277610   12.12938082983233   14.14800774205334
C         3.84873050242090   11.24078456506718   13.42761358212277
H         4.67557521463230   10.57735366007646   13.29091970901704
C         3.60706304668485   12.40706987249588   12.66069997257370
N         2.43696531795253   12.93890922570721   13.15296742946351
C         2.80886407267552   11.09958255028940   14.30785817153947
C         1.78873125073085   14.09593622478402   12.67188311298382
C         2.50261807421060   15.28833481666772   12.62973792602775
H         3.52277553965351   15.31127966390885   12.98216019922642
C         1.90976234817167   16.42127452887911   12.10219473922368
H         2.47346262918110   17.33864271903385   12.03987929978838
C         0.60818241679185   16.37040563016386   11.63260550211094
H         0.15584957777597   17.25270589636110   11.20751938905319
C        -0.10334536507224   15.18293951148449   11.68466769197970
H        -1.11150605097325   15.13526724146511   11.30207532698658
C         0.48069608676313   14.03984827564976   12.19969735724901
H        -0.05776428947540   13.10429299977626   12.20130182890459
C         0.74280836858044   12.39888765601081   14.86392251307848
H         0.51303117955198   13.46202242980445   14.79869532832308
H        -0.09594687527081   11.82973393860959   14.45275601267599
H         0.87323448954400   12.12856038427536   15.91177450673632
C         2.55779332597735   10.02627389300003   15.30078264001474
H         3.34081457666388    9.27814121178040   15.22789329491364
H         2.54731609812402   10.42532735428278   16.31503667308661
H         1.59733607487798    9.55058033786703   15.10874499585015
O         4.90970764853725   12.02088523890676    8.94545834227048
N         8.22121103243157   11.66622686912198    9.76835498139047
C         7.01322236800250   13.20805338569564    8.71162414602962
H         6.71274323088358   14.11104745980721    8.22166977808174
C         6.12993649736768   12.16253552970284    9.09716859588510
N         6.91911950696062   11.21090971245184    9.71912399449617
C         8.26956443299748   12.85610199947019    9.11044366807689
C         6.43276226797048   10.17146286245623   10.52700007438917
C         5.36923858447447    9.40085896558532   10.06762395658343
H         4.94825202266706    9.59437952915328    9.09494534583316
C         4.84390950737426    8.40719237762320   10.87274141356349
H         4.00028622208791    7.83305061703265   10.52313023759546
C         5.39426553345730    8.15208768248470   12.11775915719025
H         4.98807237463583    7.36838409508565   12.73915928729190
C         6.45746282062433    8.91636378533932   12.57140019646448
H         6.88151375048492    8.73332489121179   13.54853356191470
C         6.96961989719349    9.93697608322141   11.78997689029008
H         7.76233739784098   10.56435968706144   12.16982644609313
C         9.33083018644492   10.76260933303405    9.92126777022648
H         8.95772380954008    9.77316695316404   10.17764941755086
H         9.90381665570128   10.69059842531090    8.99305293084413
H         9.99394703736260   11.10814265640387   10.71695903335326
C         9.55424502951189   13.57184669737208    8.91889949553897
H         9.36182455642515   14.55631958268794    8.50388780892407
H        10.07956301037395   13.68117109900571    9.86631772383660
H        10.20220107408921   13.02505583181589    8.23324847066007

