157
CSD_code = GUPWUL | q = 0 | S = 0 | Stoichiometry = C66H72CdN12O6 | MND = 6
Cd        2.29942543527808    8.82148114062032    7.99056377295680
O         2.62834686176236    9.84763067439830    6.07684156845647
N         2.49012148242892   11.65450419166078    4.63802337374714
N         1.74404781055664   12.83415782256317    4.56073764772238
C         0.18577919753731   14.11333959876194    6.02692031441701
C         2.15923012152255   10.96861678828536    5.81252195790139
C         1.23024948812109   11.80144600102496    6.49007228160218
H         0.77317812763054   11.53633736892048    7.42117149269085
C         1.02857813609128   12.92535216419009    5.74537672101832
C         3.07007773547358   11.10887449540216    3.49598611658818
C         4.12478549707012   10.19921530846337    3.61399357134031
H         4.45544894239893    9.89838220358913    4.59346853652218
C         4.71447797000513    9.67061164629828    2.48518870498487
H         5.53199115658748    8.97226881422538    2.59317946586436
C         4.27802363332205   10.03677083291527    1.21832388878601
H         4.74823273903159    9.62538281811725    0.33781456389452
C         3.22388884369409   10.93011956210724    1.09714455700549
H         2.86372882864780   11.20896398626425    0.11681587503919
C         2.61978740303774   11.46161472912345    2.21749999415126
H         1.77965531232560   12.13073522464548    2.10849484580611
C         2.39681935379045   14.00677787793503    4.01602762313399
H         3.10445492238141   13.70188537165798    3.24814387284243
H         1.64390705835726   14.65370977287634    3.56596799426907
H         2.93011478297203   14.56699873212280    4.78937141547391
O         0.11818613522794    9.05311128767027    7.79662188137175
N        -1.03122411961126    7.58775844605081    6.39497977919140
N        -1.69334616518845    6.36408917079145    6.53461729974656
C        -2.42180560734320    4.88768514758646    8.41383876304150
H        -2.18642274090385    4.76014649007177    9.46651662603359
H        -3.50338308159476    4.99495392180010    8.31318388425483
H        -2.11592086565357    3.99344250119897    7.87176216116987
C        -0.53210374152383    8.00498859096719    7.63126918149125
C        -0.99979560349672    7.03454096125757    8.56338198086667
H        -0.77069637579889    7.04424263926878    9.60813193512632
C        -1.71313152450214    6.08573019286454    7.89352213062943
C        -0.62025481250547    8.02928200679621    5.14223380354068
C        -0.37970794504112    7.12639788774576    4.10296339682630
H        -0.45784143099909    6.06539658313703    4.29374988144323
C        -0.00623831120027    7.58966294096103    2.85893917572145
H         0.18400016544348    6.88635953973429    2.06048301931778
C         0.13223138726938    8.95080109732112    2.62628585037860
H         0.43260253695196    9.30749610976476    1.65286905008536
C        -0.11280293319725    9.84616674089854    3.65632521342176
H        -0.02674580810869   10.90775082606780    3.47934883672949
C        -0.49115635556555    9.39989914856625    4.90516293066495
H        -0.68394828006850   10.09256524199696    5.70715261308646
C        -2.89294446387204    6.17924521358333    5.74574886008547
H        -2.71904012475021    6.54042911199387    4.73422328050498
H        -3.12450324204647    5.11615649178752    5.70788240469014
H        -3.74889267596270    6.71898581128898    6.16805715801021
O         1.86578076265273    6.86093384584982    7.07674819506960
N         2.18594010288688    5.02972173967971    5.68849407447334
N         2.67938069948592    4.80025659972911    4.39747424821087
C         3.42083607783118    6.19958763209595    2.45876252121756
H         3.61806878519886    7.24855479534333    2.25821925129718
H         4.33547804216142    5.62642827522500    2.30330563414428
H         2.67639551593995    5.84483293931686    1.74499419187159
C         2.21931313587187    6.39916020189014    5.97212756714565
C         2.70954208774839    7.01930584376825    4.79368681484743
H         2.85641996913113    8.07448020139837    4.69939501830738
C         2.93986036855936    6.05871557075873    3.85612917406572
C         2.04569589991521    3.98539673736143    6.59073955525070
C         1.15305991371396    4.10169188251681    7.66089239461009
H         0.63009511087662    5.03048575498018    7.80771990262247
C         0.96352114901847    3.04050506772693    8.51777213045384
H         0.25112465783778    3.13604022926611    9.32572543532890
C         1.65649511192296    1.84604953463308    8.34104052629830
H         1.49148034748945    1.01190101791831    9.00789261084310
C         2.56634710197390    1.73990292118844    7.29812079999687
H         3.12939473553137    0.82630333969495    7.16625870858801
C         2.76919361270132    2.79306043813707    6.43190717888124
H         3.50420899152982    2.71501790712481    5.64481261773420
C         1.95568406010368    3.83294071456765    3.59575226589299
H         1.69298001311975    2.97563788051520    4.21191178690384
H         1.03792990328819    4.25660786273060    3.17164622951763
H         2.60201569837644    3.50040486268330    2.78516866605338
H        -0.43432814928286   13.91483786977950    6.89573951805130
H         0.80552126673927   14.98545748503432    6.24311556558336
H        -0.45341333550310   14.34823995681127    5.17615771289421
O         1.97005270097502    7.79598671685189    9.90440854966925
N         2.10719052269695    5.98950499984879   11.34380798258485
N         2.85269962928894    4.80950782421691   11.42162823800068
C         4.41083887011957    3.52927510559874    9.95618022844266
C         2.43861438957445    6.67486569260516   10.16915191314376
C         3.36736646738541    5.84141678901739    9.49205416046246
H         3.82472945395264    6.10602598393889    8.56095748161214
C         3.56840538790716    4.71765568719505   10.23713987733320
C         1.52732711531043    6.53577734519030   12.48558143167288
C         0.47311664206292    7.44596091391966   12.36715271267073
H         0.14278364155953    7.74676237434697   11.38755299200279
C        -0.11650095517449    7.97514498846640   13.49572796573407
H        -0.93360398489548    8.67391669353069   13.38741628929102
C         0.31953029679822    7.60906842933895   14.76276005864994
H        -0.15063597428980    8.02090555224720   15.64308314023386
C         1.37318835246133    6.71521519646192   14.88435191216388
H         1.73301448933326    6.43641263305600   15.86481546899642
C         1.97721414572612    6.18313284221752   13.76423359778306
H         2.81699446242371    5.51361964753961   13.87353748428046
C         2.19890913784251    3.63734654553413   11.96612343844597
H         1.49190304653506    3.94266756230825   12.73441858342411
H         2.95134817939361    2.98947975858886   12.41560660972210
H         1.66471536024106    3.07796709947560   11.19277820248974
O         4.48049984110699    8.58925135432958    8.18468910175162
N         5.63031511377914   10.05425958764984    9.58638476111759
N         6.29273476468710   11.27777779189620    9.44677568020845
C         7.02141028131569   12.75412481105562    7.56758206615300
H         6.78602998728373   12.88174119054466    6.51491393037925
H         8.10296796164102   12.64663818588492    7.66821455387173
H         6.71570796828093   13.64841686698129    8.10968017696804
C         5.13102976702690    9.63722090613132    8.35009727038255
C         5.59891372338932   10.60759906334614    7.41801375427673
H         5.36975918785243   10.59798003776845    6.37327581626709
C         6.31250365420278   11.55620943238867    8.08787990259386
C         5.21933125366218    9.61277398254865   10.83913896867339
C         4.97919613774143   10.51565737042957   11.87850713567631
H         5.05762391754330   11.57664750751549   11.68778512439789
C         4.60574524582641   10.05242402156789   13.12254704265906
H         4.41577871286245   10.75573533229002   13.92105986241234
C         4.46685272218785    8.69131562910718   13.35511580309633
H         4.16646349419043    8.33465624854646   14.32853985913655
C         4.71145710582554    7.79594487913780   12.32497902342014
H         4.62506410903558    6.73437356856346   12.50188090333226
C         5.08982219591318    8.24218282570970   11.07613289161362
H         5.28232074278128    7.54951131906589   10.27407915743408
C         7.49247670593421   11.46222058511416   10.23552701052184
H         7.31857786824957   11.10103486346531   11.24705265266333
H         7.72435574057660   12.52523838803606   10.27342142077955
H         8.34821715326231   10.92224643635448    9.81309615257015
O         2.73366527064939   10.78203933985609    8.90420577838740
N         2.41423544763192   12.61370109801534   10.29205473647227
N         1.92115384103282   12.84361661142716   11.58313925029610
C         1.17973872516211   11.44494431926665   13.52234856689590
H         0.98217102890722   10.39609205073888   13.72316666225780
H         0.26533389519478   12.01846410568538   13.67787057411732
H         1.92445682820299   11.79959515155266   14.23588012435829
C         2.38047742473119   11.24418619978330   10.00877969845351
C         1.89036217124565   10.62446136367523   11.18748782627251
H         1.74324411792777    9.56934741262704   11.28208369408381
C         1.66046617569087   11.58534209023310   12.12484984124534
C         2.55447464582968   13.65776338424005    9.38951969914228
C         3.44665125321181   13.54093721619429    8.31903731401418
H         3.96926815179088   12.61194570283964    8.17222304355085
C         3.63619608721728   14.60186516383915    7.46183528522000
H         4.34831339554428   14.50593575853574    6.65368242666246
C         2.94370162683442   15.79659355063865    7.63858860507867
H         3.10877060888378   16.63056746149041    6.97152833621627
C         2.03428035731462   15.90326672990835    8.68182691613008
H         1.47159036888504   16.81708499488765    8.81371119266939
C         1.83141842682173   14.85036628204604    9.54835221519269
H         1.09669219160777   14.92881038065695   10.33567556573236
C         2.64542622043105   13.81083796110187   12.38446684166410
H         2.90826484628315   14.66792593793652   11.76806557043142
H         3.56314782567852   13.38692640080461   12.80839986293986
H         1.99943845351039   14.14376070611866   13.19516499904290
H         5.03135544437961    3.72734543156023    9.08755348699174
H         3.79084785952761    2.65734530429338    9.73991267664000
H         5.04961408690423    3.29431298974658   10.80723931928989

