71
CSD_code = GUPXOG | q = 0 | S = 0 | Stoichiometry = C36H28NiO2P2S2 | MND = 4
Ni       11.00293998488045    7.47725054513330    7.96628291910881
S        12.04683472349171    6.37529897783202    9.55852170362846
S        12.04665312169674    9.10216364749163    9.03767662903923
P         9.80163134136661    8.70051597536530    6.61493228862242
C         9.25195818138889    7.62205206404052    5.20749816398932
H         8.42464782339762    8.08057958421790    4.66001983638272
H        10.10968499194029    7.55705741676147    4.52856686640581
C         8.90512171657861    6.23399319527792    5.73651034183106
H         8.79151698492295    5.51023431577852    4.92433429359213
H         7.97893139092639    6.27091272701077    6.31759575536251
P        10.26181054545713    5.71131504880215    6.88744160880016
C        12.53099841419088    7.90365775793632   10.16675946942320
C        13.18026762603059    8.12190028464295   11.34875821799780
C        13.57598567584478    7.06337649073602   12.26696952320465
C        14.22915685429270    7.76212770028710   13.40944741908021
C        14.78758299547505    7.24015524097777   14.55860458342360
H        14.79096231158417    6.17397190283400   14.72867411663293
C        15.33966057904662    8.12238626394598   15.48032727159421
H        15.78249317270877    7.73749383996051   16.38782164239050
C        15.33032009858442    9.48965546955085   15.25200540405283
H        15.76611850447539   10.15425278536694   15.98424752239434
O        13.41286419535917    5.86455151077954   12.13338021731485
O        13.37424861665894   10.51824113025206   11.36727074505681
C        14.76807043611815   10.01715791404474   14.09511959293101
H        14.75611344085896   11.08073551524644   13.90977913982326
C        14.21921472027317    9.14289150453040   13.17903121255783
C        13.55783873750753    9.42690292022681   11.87308423276406
C        10.37544480131071   10.18463662959888    5.73572204993091
C        11.74223883318752   10.43001583715571    5.68134215772558
H        12.41826601592240    9.75616346609162    6.19196692886952
C        12.21973816409662   11.53725967307371    5.00399815752295
H        13.28101450702780   11.73198980832801    4.96773442105284
C        11.33306363715159   12.40045208547047    4.38192980261063
H        11.70330557634848   13.26827058967128    3.85657493136637
C         9.96876223443547   12.16044654308893    4.44022511468056
H         9.28005709167874   12.84060764952905    3.96072619561006
C         9.48579457821335   11.05610847130242    5.11700068667817
H         8.42174202391044   10.87384607841674    5.17720494158329
C         8.27810664290127    9.29887399866547    7.40755952957889
C         8.48051854125691   10.09895683028060    8.53189001926830
H         9.49352633994273   10.30205689784935    8.85721655100303
C         7.40262516115564   10.61852281711435    9.22154392520979
H         7.56648403719820   11.23789825379113   10.09050705350402
C         6.11234337258341   10.33672250857718    8.80008886267280
H         5.26683391432694   10.73779158568844    9.33892811308274
C         5.90634388270633    9.53460330887455    7.69050710203545
H         4.90057589948208    9.31139789997059    7.36455396757919
C         6.98298173009810    9.01265715478431    6.99345094223291
H         6.80058136882684    8.38852935448651    6.13058803964836
C        11.63289747176680    5.46299199572292    5.71112996342107
C        12.69719605872085    6.35729285652793    5.78082405167776
H        12.68312251789602    7.13765749046363    6.55859445646086
C        13.75836910283380    6.24841687579949    4.90229793854115
H        14.58453460472318    6.94112852020318    4.95832526168259
C        13.75984471047139    5.23792200993422    3.95347802991270
H        14.58833748595185    5.14541824003405    3.26719100769665
C        12.70685151369034    4.33851599870325    3.88730181092069
H        12.71921565894421    3.54811110445099    3.15123879896300
C        11.64187434903210    4.44644737965831    4.76345010674450
H        10.82434124883027    3.73987062896613    4.72305174003948
C         9.86816900694843    4.01256978239828    7.37711676526543
C        10.89168176076142    3.31129323897482    8.01356059355745
H        11.84702384567591    3.79582426869577    8.16640431718206
C        10.67884448684510    2.01900305137514    8.45103081482310
H        11.47332090648695    1.47970112300672    8.94426633131276
C         9.44193276642613    1.42079608376343    8.26457237839782
H         9.27256273776029    0.41123512449521    8.60821182414132
C         8.41857826215294    2.12039657129929    7.64726317349650
H         7.45270885664568    1.65612603794096    7.51040794542053
C         8.62377461053480    3.41721581518071    7.20845955626616
H         7.81554249808961    3.95742663157465    6.73770292323285

