81
CSD_code = GUPYAR | q = 0 | S = 0 | Stoichiometry = C40H33N3O2P2Pt | MND = 4
Pt       16.17928911382048   10.98413354412541   12.23909507511603
P        14.68435741589824   11.77700259018764   10.73357233712124
P        15.98225557065404   12.58262133510325   13.93394224648189
N        17.56682441878844    9.96764342787476   13.24097552845593
N        18.42745788131739   11.11780428301244    9.77821074955759
N        18.92335556174969    9.13860869683415   14.91297554609474
H        19.12257347070841    8.36521879253560   14.29090469849197
H        19.23485760582027    9.12892304917638   15.86740226866229
O        18.35558685961687    7.90914263035487   12.52020911135358
O        17.58535849416290   10.93939187937041   15.26946709834242
C        17.76551462975831    8.96239061375920   12.35354074067250
C        17.02142429767041    9.43679470235993   11.11732306612063
H        16.56374450878908    8.65088325906594   10.51524104011088
C        17.80662631617322   10.34252112480670   10.36745345505062
C        18.00682565140158   10.05160295855159   14.52995951619048
C        12.93624528385507   11.55763330782155   11.17178300741414
C        11.90492726878254   11.80126627778650   10.26979370976144
H        12.13589027117371   12.13006341207122    9.26558151447637
C        10.59293418701315   11.60168140484213   10.65881833726831
H         9.79039593561010   11.79576184366309    9.96232264097286
C        10.30488002623495   11.14625863222442   11.93655563979552
H         9.27792298592973   10.99265372659305   12.23324953701511
C        11.33085418476502   10.87260542382859   12.82638336897907
H        11.10778103382661   10.49991470695881   13.81541719632567
C        12.64383840296416   11.07516057941588   12.44181738593851
H        13.46646424371049   10.85436567275164   13.11571100142052
C        14.74065522708030   10.93082322910085    9.12013105259659
C        14.25663922707828    9.62410234754887    9.08659979702349
H        13.83175718667135    9.19479589188726    9.98608387626975
C        14.32266350839056    8.88663137705871    7.92113788988151
H        13.94597848121614    7.87439808560096    7.90011339477246
C        14.88205698577730    9.44462367654263    6.78166755899695
H        14.94183064656270    8.86608490210647    5.87189427663030
C        15.36947201469684   10.73963512701014    6.81310979614968
H        15.81088177411023   11.17243209121750    5.92778441227461
C        15.30214380097283   11.48529625104872    7.97774990881443
H        15.68999217889224   12.49287507129601    7.99770646575504
C        14.90450014409947   13.52275546098835   10.28278842173911
C        16.22637344755078   13.90863173443717   10.06364434648093
H        17.01637402697943   13.17424214641738   10.17332844169950
C        16.51819627793191   15.20579662030617    9.68954327478029
H        17.54273796289890   15.49896980590835    9.51577125069315
C        15.49270679073920   16.12559323887816    9.53555725156264
H        15.71666130720838   17.13948130662241    9.23828755860677
C        14.18123593459410   15.74801960560145    9.76821902129796
H        13.38405645524281   16.46815216531905    9.65618152012204
C        13.88154866382523   14.45024357881254   10.14569681461558
H        12.85803490502833   14.16790199777321   10.34271509797190
C        17.60903973303013   13.32996840008340   14.23179324854684
C        17.98909369123917   13.96334645432272   15.40587890359559
H        17.30792821423973   14.01103152303292   16.24125732626097
C        19.26061940955208   14.49890971254207   15.51088180883368
H        19.56251032278896   14.98493743980568   16.42763510531802
C        20.15043528851659   14.40925446982434   14.45239050730693
H        21.14223160397685   14.82751031240491   14.54449295595809
C        19.77408060676787   13.77042629506948   13.28188787238801
H        20.46856668074653   13.68428795956978   12.45914511621448
C        18.50657153714351   13.23051420485521   13.17358940910936
H        18.20673929057780   12.70731143546501   12.26701166478938
C        15.01401682897323   14.09285142407161   13.53419730976890
C        15.62655431340975   15.26770975102054   13.11176231024421
H        16.70180677581724   15.30918821693060   13.01508529649599
C        14.86932057667493   16.38924044184703   12.82556627173151
H        15.35977148461104   17.29944964540435   12.51290966045023
C        13.49073109994516   16.34985845253751   12.94251573780312
H        12.90210637909522   17.22871942305142   12.72459808372376
C        12.86982231002658   15.17779488325547   13.34157054141344
H        11.79371597460670   15.13662223127677   13.43133181556904
C        13.62548644774249   14.05944733702101   13.63615108943013
H        13.13553098428787   13.15396197208578   13.96496319681294
C        15.12149931274076   12.11000964642500   15.46088939324654
C        14.77252342788038   13.03196305620691   16.43967869085994
H        15.01704970317704   14.07736752875067   16.31107724485020
C        14.09380511099567   12.61184165297625   17.56998669944064
H        13.83327879611750   13.32741989320336   18.33662670485072
C        13.74353356792688   11.28009631197879   17.71971516893144
H        13.21378864398532   10.95775061136543   18.60428836937190
C        14.06784436763084   10.36243340406834   16.73331083668779
H        13.78778401486686    9.32494480106495   16.84597460265840
C        14.75473770634258   10.77753160012176   15.60881929536778
H        15.03139322674117   10.06736592174346   14.83640051605360

