90
CSD_code = GUQCUQ | q = 0 | S = 0 | Stoichiometry = C34H42B10P2PtSi | MND = 4
Pt        1.62745980947444    4.50281039487238   10.91699684872916
P         2.14941381889767    2.37019723180665   11.63944134658403
P        -0.37517483368118    3.93288869126423    9.76895712334565
Si        3.65445092791531    5.10835971517198   11.92532425482042
C         4.75815106832638    3.51242485905174   11.97772710193357
C         3.97268242081798    2.11367975353759   11.84732115863849
C         1.40921728867147    2.27751155476436   13.30735936881032
C         0.62997380792793    3.37847885387217   13.66091881295591
H         0.53833556412964    4.21662968119074   12.96177899413254
C        -0.00465915920294    3.43360290989736   14.88795224138024
H        -0.60267008941685    4.29484862250541   15.14774741442294
C         0.13621081555550    2.38691511008783   15.78379894092146
H        -0.35645655620660    2.42457644131185   16.74408338920102
C         0.92401765376916    1.29716488907696   15.45070317045039
H         1.04997449022900    0.48706362941002   16.15407396926297
C         1.55873045421393    1.23969770840555   14.22272855469351
H         2.19113359647563    0.39667202288584   13.99300885820515
C         1.60838627548910    0.83735360519344   10.80601381424380
C         0.90787630153336   -0.19574890883066   11.41450993709786
H         0.62808120982993   -0.12951427965778   12.45464285204625
C         0.54532579803620   -1.31488617098468   10.68529260440647
H         0.01090767433794   -2.11689128324182   11.17313576995891
C         0.86172462575740   -1.40988533047047    9.34177440822262
H         0.58354394446321   -2.28940302285162    8.78035275854973
C         1.52219462700404   -0.36497131821834    8.71622586232895
H         1.75400067357422   -0.42002643253848    7.66269845977381
C         1.88694619170660    0.75081054990379    9.44244322539001
H         2.39728699946596    1.56619113916715    8.94870644941628
C        -1.23681716345137    2.36102435175349   10.11443514495548
C        -1.73586115732915    2.21252800632392   11.40775236602053
H        -1.61556453177346    3.02142782022956   12.11749386407363
C        -2.38528793909858    1.05323552849370   11.78290789656898
H        -2.76965583515336    0.95144784912396   12.78752140718887
C        -2.54205743705476    0.02508065646707   10.86713948679356
H        -3.05405815092758   -0.88142054133395   11.15392949275072
C        -2.03464653172947    0.15957273458135    9.58630055812399
H        -2.14934903903746   -0.64356701116857    8.87323603731567
C        -1.37756488451521    1.31774402320009    9.20936516862406
H        -0.97300249663132    1.40398166130503    8.21179956039225
C         0.15022190854256    3.79592089183489    8.03199523450770
C         1.50677325283009    3.93912225507347    7.76253127073010
H         2.18702609355108    4.15744542008935    8.59039790274288
C         1.97562938247564    3.84424114276769    6.46494403173813
H         3.03053602052994    3.95358428940904    6.26101362833229
C         1.08598528281423    3.61471965347495    5.42822794423024
H         1.44734908219534    3.53787142370231    4.41336456897386
C        -0.27129765999153    3.50043304971105    5.68781374454355
H        -0.96442426514350    3.34120963803953    4.87443181728390
C        -0.74295373662490    3.59478886355409    6.98426172730759
H        -1.80333707449576    3.52354897070946    7.18685605551641
C        -1.78470830475980    5.07452200732518    9.54809075710225
C        -3.11175178077689    4.74316421675846    9.79060149251985
H        -3.37321859857167    3.75579164797834   10.14411514967271
C        -4.10801370971139    5.68011435525188    9.57468483785866
H        -5.13849830907774    5.41571850536251    9.76390600961596
C        -3.79058466915498    6.94679383473981    9.11584519109482
H        -4.57263809604509    7.67232678471134    8.94758219202081
C        -2.46710906038096    7.28250688465632    8.87546537822156
H        -2.21496425434170    8.27064023412975    8.51991590556216
C        -1.46979513559837    6.35312241081685    9.09428719759187
H        -0.43258120309180    6.60917175406130    8.92118977533988
C         4.76361873082222    6.44896863114949   11.10949483250826
H         4.25070928084171    7.40316154367747   11.13940849456998
H         4.98833484862017    6.23078452520676   10.07170580485922
H         5.70148380653265    6.55752301212677   11.64372852189345
C         3.48880969005186    5.68786862604819   13.75911812087871
H         4.46092228145052    5.74512892939475   14.23829069475245
H         2.86010923142562    5.03596512925847   14.35751274503250
H         3.04750000982252    6.67811159768510   13.78455850145576
B         4.87921662287050    2.66997842689816   10.50192595664171
H         4.26406630579516    3.11233160918347    9.59708204019324
B         6.29129062317913    3.43569471416032   11.19857598411596
H         6.71296607197776    4.40769262286161   10.69510890189972
B         6.15226643145950    3.34576445681613   12.94636367988087
H         6.48171088234143    4.26233804805935   13.60553433521671
B         4.67355260921021    2.50195771562886   13.35710538526347
H         3.94170612997634    2.82099760707426   14.21956588035472
B         4.89414617842804    0.96562168422477   10.94875736139039
H         4.31714700405864    0.18220869692345   10.28571049703899
B         6.40374360998065    1.79296101868116   10.53627008248829
H         6.99087832240297    1.55368034927689    9.54448218959004
B         7.21324879853552    2.20765287815919   12.08041279031084
H         8.38542581773807    2.26487048177796   12.17221588153127
B         6.19221395798160    1.62616177852240   13.42838056966371
H         6.63668549739063    1.26713266229552   14.45781919133514
B         4.76070228731867    0.86182803715319   12.70250351967669
H         4.10673001869302   -0.00014081682943   13.16711252191804
B         6.34115265100773    0.66716586457459   11.92421322736995
H         6.88126258232178   -0.37921291849896   11.90584665710663
H         1.39585432018478    5.99393915863898   10.62967514576725

