49
CSD_code = GUQCAX | q = 0 | S = 0 | Stoichiometry = C18H16F10N2PdS2 | MND = 4
Pd        3.97878723940015    1.68542185480723    3.02221399507651
S         5.50467861166544    3.34902211264271    3.61338933426711
N         2.58590549252934    0.12611761383066    2.65457330679419
F         5.55148590455496    6.28549898075298    3.87821148923175
F         3.98987724707320    7.82724020745441    5.46964022469548
F         2.07550442756069    6.68188152243866    7.04758501052565
F         1.76517141767673    3.95850756048358    7.02952364887078
F         3.34034252009048    2.40507668661150    5.46881435560439
C         4.49474000656408    4.31180399698128    4.63003688343301
C         4.63124612448402    5.70631977957726    4.66182537652183
C         3.82951325820545    6.50224073936934    5.46435372713420
C         2.85109295916046    5.92095926931731    6.26826306687990
C         2.69363848160118    4.53793038869029    6.25884158293539
C         3.51109633726212    3.75978276696530    5.46002623547869
C         3.22882769505411   -1.08958468694545    3.17082196450717
H         2.76549840510059   -1.98764058644979    2.73475983911105
H         3.07344692830072   -1.12343559573016    4.25314415630306
C         1.32650186379750    0.36111915343697    3.36023346194063
H         0.65379459923637   -0.50007518203298    3.26009951248451
H         0.83397271605372    1.24223879627627    2.94921757524085
H         1.52462289928721    0.54505126088593    4.41875715077876
C         2.34783211681521    0.04097331168137    1.21482562304542
H         3.29117403445158   -0.07031686768749    0.67744194287886
H         1.87051825022644    0.96240840879135    0.87809182115189
H         1.69308443431213   -0.80718771990977    0.97375382380985
S         2.45279329959659    3.34908990142456    2.43161852640034
N         5.37156641108428    0.12612052697742    3.39031704931857
F         2.40596756628808    6.28553300501236    2.16670189890497
F         3.96758477274309    7.82724913371953    0.57525998752411
F         5.88195868357359    6.68186583308615   -1.00266924777169
F         6.19226386291739    3.95848603580224   -0.98459714466959
F         4.61708647230627    2.40508169714588    0.57615837936526
C         3.46265932281249    4.31182519792193    1.41485068166568
C         3.32618594019859    5.70633927328276    1.38307193856397
C         4.12793462912111    6.50224833653003    0.58054731329796
C         5.10635114306303    5.92095241056051   -0.22335745040198
C         5.26378989667247    4.53792047600888   -0.21393003095311
C         4.44631336750079    3.75978467500708    0.58488300256524
C         4.72864223385120   -1.08958189569558    2.87406302008438
H         5.19196859419476   -1.98763258708948    3.31013924570475
H         4.88402304388912   -1.12344838371794    1.79173826474142
C         6.63098366838354    0.36111579276940    2.68468919283049
H         7.30368561276264   -0.50008106949171    2.78485228285820
H         7.12349574319336    1.24225179573957    3.09569463853368
H         6.43287169045694    0.54502488682055    1.62616094950832
C         5.60963369523878    0.04100714693725    4.83006827902563
H         4.66628563392231   -0.07026718520199    5.36742896201836
H         6.08695701355405    0.96243599179476    5.16680865933035
H         6.26434373221724   -0.80717476758468    5.07115649285697

