59
CSD_code = GUQDIG | q = 0 | S = 0 | Stoichiometry = C25H29ClN2OPd | MND = 4
Pd        8.52153528590711   10.71951818261222   13.20722883620740
Cl        6.76397436994266    9.42147484860437   12.63245545499305
O         7.49176633573844   10.29737356516660    9.85620827796415
H         7.16004069420538    9.93353719797557   10.70881980452380
N        10.15485171242327   11.74929832531843   13.71512180842503
N         7.62233499277180   10.38557665622665   15.33901095530988
H         6.69151717040827   10.26595884535231   14.92669296596764
H         7.90500172470830    9.50465059999038   15.76320737957779
C         8.54878504901897   11.09650153370740   10.08506978721261
C         9.10209948143362   11.32393515837215   11.35055620551011
C        10.20994716803412   12.19420145324019   11.43492330665186
C        10.76050038259344   12.81259561001454   10.30800554867299
H        11.61016381529165   13.47029984997314   10.41703250434187
C        10.19983087004391   12.56721901172845    9.07273779953778
H        10.60596090399137   13.03144782769635    8.18646726138816
C         9.11180016654669   11.72097384057306    8.96450865390883
H         8.66065588717759   11.51590062334513    8.00573224794370
C        10.75385591816874   12.34911018149497   12.75097791379249
H        11.67365771867471   12.90952917730733   12.92008986875659
C        10.65767406575095   11.73576021269744   15.02001903058652
C        10.71689879827847   12.89438427349180   15.79864041423224
C        11.20716456248389   12.79894015232348   17.09279606830256
H        11.23958689064408   13.69099883493814   17.70118176243559
C        11.65945197074459   11.59877672202397   17.61568990693025
C        11.60468183898501   10.46149334979228   16.81825501285375
H        11.96683097880649    9.52173536389973   17.21260630178882
C        11.09851593388582   10.50521404488063   15.53122075226618
C        10.25817523483988   14.21734931435632   15.26279835898485
H         9.86351325100487   14.82872219606207   16.07001764097876
H         9.48538916772003   14.08956120167424   14.50759629463089
H        11.09209660283583   14.75454174230780   14.80927903492855
C        12.19284036837834   11.50981337139820   19.01267054053174
H        12.20083971521580   12.48652749093230   19.48896375538401
H        13.20793156414425   11.11493336657266   19.00918864762027
H        11.57828494337888   10.83692198230977   19.60961660238391
C        11.05277073914826    9.27602932783828   14.66916344292377
H        10.07809216679719    9.18613793439214   14.14418483050991
H        11.21924956102731    8.38018816140646   15.26342832016545
H        11.82650200452828    9.32611188539557   13.90072507687269
C         7.64568050405695   11.44588827769246   16.28147575280040
C         7.17569851921334   12.70616021885972   15.89334576550033
C         7.26566342596604   13.76021233328305   16.78799139199749
H         6.90889617038643   14.73516028254972   16.48682039373553
C         7.80531424030519   13.59434872998465   18.05475985897720
C         8.22220681357126   12.32767073141047   18.43420780704712
H         8.61621982671358   12.17713307521199   19.42906621400008
C         8.13665874262342   11.24472802727071   17.57415191474150
C         6.57549833271440   12.90923833870553   14.53276540564332
H         6.37324629855833   13.96315992359873   14.35876385100477
H         5.63256321743603   12.36427563737021   14.44294699962250
H         7.25165246379453   12.54294613906814   13.72781125016986
C         7.90046090773176   14.74851465586201   19.00684409889380
H         7.98987487926838   15.69003978183443   18.46953840825720
H         8.75712778585444   14.63525128555095   19.66752801415799
H         7.00409811371653   14.79952026716282   19.62587564163584
C         8.53366640832426    9.87448514083241   18.04528909979544
H         8.86227165359631    9.91818242003561   19.08003174594441
H         9.35120571733181    9.47062457577337   17.45000822403219
H         7.68732597312579    9.18701674056403   17.99248978605285

