63
CSD_code = GUQFIJ | q = 0 | S = 0 | Stoichiometry = C24H32I2N4Pd | MND = 4
C         0.21429329841082    1.25659090860542   53.19165186118377
H         0.66070575170196    2.11151456282386   53.70127586156033
C         0.01480980970593    0.05747881268975   53.85024360476937
H         0.31566120939818   -0.04857204926972   54.88038798480279
C        -0.57765049958553   -0.99099613311817   53.16290664296934
H        -0.74967269307006   -1.93997335840218   53.64745629823522
C        -0.94438434206761   -0.79460808039712   51.84130064544725
H        -1.40885587575435   -1.58009531797426   51.26671799056109
C        -0.70081802328224    0.43563417585999   51.25664051188514
H        -0.96478438537593    0.62301137980513   50.21859053244741
C         0.82184304733667    4.99923500196571   50.44445566181760
C         1.20107099294245    6.06602336853024   51.26943870192334
C         1.35456971979176    6.01917356028652   52.71606834907202
C         0.94260483551662    7.05691975141425   53.54807456288400
H         0.50687750414038    7.95029019027742   53.12783637738039
C         1.03128830681424    6.92341015868178   54.92158827281099
H         0.69583860749884    7.72896591963360   55.55722670162736
C         1.52961922592026    5.76014760478496   55.48150072629473
H         1.58959823503865    5.65778513796435   56.55447342828369
C         1.94381687082318    4.72212988915742   54.66193836015458
H         2.34004138644315    3.81603899369392   55.09869908937208
C         1.85387105571716    4.84195108297143   53.28767486855788
H         2.22455565656300    4.03549947013844   52.64673855524185
C         0.62766695688746    4.83558378985883   47.95261320121855
H         0.70973720497057    3.76298033952164   48.16636078813596
C         1.73815150415438    5.23602643961304   46.98076688466801
H         2.70422167353680    4.98670281405193   47.42618782115601
H         1.70148504658750    6.31614011960568   46.82534780097283
C         1.58550437890367    4.51830934657792   45.64245628292846
H         1.65216975242943    3.43878885543617   45.81601703525359
C         0.20946075909232    4.84047289056979   45.06428597246936
H         0.07827332865096    4.32436599358373   44.11124693547205
H         0.13827561675554    5.91421462546299   44.87514054155955
C        -0.89036122019401    4.41258091203376   46.02980543161566
H        -0.81857727058130    3.33434361274929   46.17997537076765
H        -1.86389976896022    4.63113248042130   45.59108646009899
C        -0.76688561600988    5.13008306163725   47.37628120047716
H        -0.82577629943822    6.21133819682872   47.19967714776508
C         2.70146965808022    4.92538390268544   44.68606578710529
H         2.59645161207906    4.40574022354422   43.73675834786965
H         3.67283561402294    4.67764986465884   45.10700708348580
H         2.67015395363828    5.99642762174016   44.49652432462288
C        -1.89215229405277    4.76223929695146   48.36796708909512
H        -1.68598626319866    5.29317708447967   49.30650974788099
C        -1.97398836106364    3.26841473132960   48.68907884354586
H        -2.79840078467162    3.10147480714900   49.38159658430046
H        -1.04339449574852    2.90747384996382   49.16943702729655
H        -2.15898763858581    2.67943414662618   47.79376615539482
C        -3.25106915344303    5.25397949387219   47.87062790918042
H        -3.19946252519369    6.29893300213848   47.57266574790299
H        -3.98716397647592    5.16311814225405   48.66561347462132
H        -3.59476748333624    4.66675111061854   47.02264259507525
C         1.81739164204609    8.45602481487666   50.76752070870414
H         2.32354466171547    8.86801925474632   49.89581161661727
H         2.49459218973123    8.43077638535031   51.62015884824945
H         0.95724115152034    9.08516248997098   51.00449059532796
I        -1.76530312148491    4.23965448841378   52.34549328631508
I         2.43780331436697    2.13978121410806   50.00073540704798
N        -0.13491289207583    1.43628166774237   51.92101066080746
N         0.84716834006771    5.52888012024322   49.20587909849916
N         1.18289908530502    6.80084466876238   49.19794563338896
N         1.39359872629096    7.12370079804261   50.44840037374508
Pd        0.31949329909157    3.22145831157410   51.11865859009782

