41
CSD_code = GUQLOV | q = 1 | S = 0 | Stoichiometry = C13H24ClN2Ru(1+) | MND = 9
Ru        0.61979480801532    4.46787480721583    5.36048355880187
C         2.09368517236792    6.26001218699323    5.96146753244826
H         1.94657890161692    7.30423085844349    6.21034636117603
C         2.45153693923974    3.95670757704008    6.65120537470812
H         2.58329870610200    3.23105938066488    7.44663179177488
C         2.35229512848566    5.89080090388718    4.61538693363521
H         2.39518526870960    6.65568011197552    3.84860445988799
C         2.16007886104272    5.30524732695017    6.97682613465284
H         2.06345179149777    5.60500280655350    8.01301039714783
C         2.72237565113151    3.58908303032741    5.32719636768181
H         3.03525560299597    2.57826897729939    5.09199014390307
C         2.68028471994806    4.56935816516387    4.30353025944472
H         2.95918505797584    4.29831705597534    3.29148280818495
C        -0.96429619234853    7.04234757835804    5.18394851560665
H        -0.17811624178906    7.46027165678526    4.56027550713082
H        -0.67919693676562    7.14476013607454    6.23191934159129
H        -1.87750657082704    7.62258529397468    5.01533391451525
C        -2.10594473864088    3.65387441383385    6.01677033972228
H        -2.89868320838797    3.30948294414256    6.69226049149821
H        -2.13094250120761    3.05438893378985    5.10136118457852
C        -1.58217244144609    5.53941022555576    3.42095443389072
H        -1.87635168218702    4.50653223021807    3.22661554140644
H        -2.44809513489839    6.19323697470652    3.26005981192597
N        -1.18578985676296    5.62954680888686    4.84837325358902
N        -0.77920740146822    3.46511600849125    6.63517992743958
Cl        0.03567898323089    2.87244970572925    3.74392666053208
C        -0.75779053088740    4.03885462494473    7.98641019660130
H        -0.80979839733113    5.12675861573835    7.95522219258214
H         0.15841621540155    3.75015799925858    8.49812056072670
H        -1.60260167476986    3.66601611540235    8.57429337290372
C        -2.31283034598248    5.12488378842535    5.67426001248893
H        -2.37542017306748    5.71354929596590    6.59217559376188
H        -3.26112343239908    5.24635672174651    5.14105584692348
C        -0.48274846918650    5.91170061623502    2.43835992548993
H        -0.22864546984177    6.96736417348504    2.47387990936119
H        -0.83245616472904    5.68878624054176    1.43432291146751
H         0.40565451403963    5.30966068526279    2.61955286805773
C        -0.51809372041293    2.02510862612691    6.75276742570906
H        -1.29166807065141    1.54460885835945    7.35789983807879
H         0.44793964540396    1.85622172293766    7.22537051206822
H        -0.50881661121865    1.57132581653497    5.76226778691106

