86
CSD_code = GUQVEV | q = 0 | S = 0 | Stoichiometry = C39H41N3O2Ru | MND = 5
Ru        3.53902684268960   15.14154240284035    2.92119486851330
O         1.90509705619874   14.58199118361200    1.97013276059617
O         2.48058659439388   14.45466541118832    4.55361146367766
N         3.59856311544020   17.55729802906727    4.28148433172036
N         5.48471732641505   16.68663273766201    4.88522874551022
N         4.38939615908353   15.74887482437422    1.21686454225055
C         4.42019046553618   16.51426797403069    4.10024068471951
C         4.08707744415501   18.53643956307798    5.23982981580301
H         3.37304568042353   18.67891989487983    6.05546805902859
H         4.24690961876670   19.50394537092279    4.74954176808946
C         5.39778543126478   17.89250738240526    5.70936730850517
H         6.26866569553769   18.53217429893586    5.53818343869058
H         5.37584121678021   17.62405188620717    6.77005614296697
C         2.38238550449463   17.63251132880502    3.54460550861014
C         1.17749009588139   17.22397835208768    4.13571862471402
C         0.04277595615130   17.17010395055849    3.34167509608845
H        -0.87899286277248   16.80380923950467    3.76992691851614
C         0.06911932543386   17.54441550825273    2.00435854086642
C         1.24467089611141   18.06068232526715    1.47798602120867
H         1.26433805230612   18.41288600507224    0.45567639175140
C         2.40880518424351   18.12173771398941    2.23145850810775
C         1.10685138041869   16.89044417949379    5.59441546678430
H         1.17438522880734   17.80218862525680    6.19107423386461
H         1.91971684639143   16.22194625811217    5.87583347169816
H         0.16556210842380   16.39744235795332    5.82134864696216
C        -1.15656919240707   17.38715825072045    1.16131848801537
H        -1.32681166177196   16.32790558012539    0.97186231336768
H        -1.04928626652163   17.89855931929678    0.20818483537947
H        -2.03302663996427   17.77456491400108    1.67662632309481
C         3.63778627516398   18.78651504304407    1.67448373628719
H         3.62995455890309   19.84259463531445    1.95276047090421
H         3.65180075135337   18.72721764296066    0.58878349664246
H         4.55478446286786   18.34055675275395    2.05763636739190
C         6.52617314323045   15.74210678098278    5.08236708187743
C         7.75470373355304   15.93173388764865    4.45376187539858
C         8.75986980454763   14.99528175556188    4.65497356066257
H         9.71175095542220   15.13477921140343    4.16275589156694
C         8.56476625164829   13.89097438522195    5.46840844503927
C         7.33762008761173   13.73826694298416    6.10191751864028
H         7.18115705009818   12.88480995532506    6.74619708973508
C         6.30835148775844   14.64929482171258    5.92744968848348
C         8.02414349739564   17.13567566885183    3.59822382638157
H         7.10181307157210   17.58243870998508    3.23564555140565
H         8.64019564187761   16.86348684411535    2.74426741977408
H         8.56854748776576   17.88578423134364    4.17398026076506
C         9.64327587556462   12.86769348977511    5.65322401871503
H        10.61026810048510   13.25976098361103    5.34851984390538
H         9.42603413220541   11.98688126732022    5.04855093961726
H         9.70101207631568   12.55113510333872    6.69255578626891
C         5.00417908882478   14.47823617837001    6.63988695347672
H         4.99637532407278   13.54766535449021    7.20065891991061
H         4.17552204532061   14.46436396025508    5.93063056106336
H         4.83741423732949   15.29879862199180    7.33799608774562
C         4.67572689204011   13.63323574564394    3.07079982788646
H         4.66601157143112   13.07562584007280    4.01424107254785
C         5.51875858493698   13.06552885009624    2.06219757805699
C         6.82210472821702   12.64161616434180    2.36687131697654
H         7.17604814688303   12.74260323013499    3.38260243924722
C         7.65232878959000   12.14319729536382    1.38481411776707
H         8.65906446513348   11.83983775831683    1.63703090196999
C         7.20238772653357   12.02107751445623    0.07890300040059
H         7.85371393140461   11.62512648685983   -0.68643119206805
C         5.90260083408147   12.39190573700359   -0.23244828580881
H         5.53668983424080   12.27199362815203   -1.24268797813143
C         5.07269577186492   12.90896139447938    0.73937540696871
H         4.04688910321307   13.16673885630909    0.50869341694999
C         0.97219893518065   14.11466663025084    2.78462820063730
C         1.28888366861711   14.04233443221745    4.16890194342548
C         0.32283068193134   13.57834261370830    5.06020717240533
H         0.56409941669359   13.52299943769354    6.11290842381163
C        -0.92676668040259   13.20271021018512    4.59599793406142
H        -1.66937865046653   12.84766484085407    5.29749689343239
C        -1.23239140819067   13.27755136985375    3.24782314281207
H        -2.21123069459623   12.98171913149837    2.89663417652671
C        -0.28750990827655   13.72814481668820    2.33998808579259
H        -0.51101669077827   13.78275746536195    1.28257003055345
C         3.63285912345138   15.91354256074901    0.12219390744670
H         2.56962954543276   15.75587727954042    0.25105924320193
C         4.14848801898893   16.24539044883667   -1.11450515814018
H         3.48320591820640   16.35585963301580   -1.95707302602653
C         5.51612921455855   16.43140039188624   -1.25768248871231
H         5.94909827526608   16.69449487648082   -2.20997377613715
C         6.30690216878046   16.25734671906498   -0.12978760389154
H         7.37786898101183   16.37645161353088   -0.18030396467242
C         5.71437421119850   15.91660742509058    1.06770801063953
H         6.31358975102886   15.74629250620405    1.95273851930564

