74
CSD_code = GUQWOE | q = 0 | S = 0 | Stoichiometry = C37H33ClP2Pd | MND = 4
Pd        7.87422816456500    3.82370648784926   -0.11800953051636
P         8.46497190453733    3.11186866010528   -2.17254827782848
P         7.35145548399053    4.14575940039041    2.03793708093687
Cl        7.83141153322273    1.54886535432643    0.56192738712189
C         7.94827617767790    5.81696618796803   -0.63816426522007
H         6.99633507980522    6.08816606366539   -1.11179612721721
H         8.74968966133900    6.00647778944879   -1.36095630611575
H         8.10512244346175    6.47495180270025    0.22226420840264
C         7.41381947806872    1.94627626141290   -3.08744668673964
C         6.29737418871941    1.41283907269679   -2.45422169023555
H         6.09614037434214    1.67868296970857   -1.42261357878622
C         5.47481590464439    0.52831987615858   -3.12877307194175
H         4.61130890809260    0.11060242465328   -2.63230567600099
C         5.76018146285449    0.17830734743981   -4.43785879558790
H         5.11927369469176   -0.51303934414960   -4.96545777633365
C         6.86710785646368    0.71661171494742   -5.07610578488865
H         7.08610708118035    0.44592966604395   -6.09912161098447
C         7.69223322744922    1.60193389597910   -4.40811078341417
H         8.54719006932439    2.03502880465748   -4.91060118983119
C        10.00891311069085    2.22228909545565   -1.80058288121212
C        10.76461369844454    2.76155612771804   -0.75848151107028
H        10.41020460318508    3.67197693924627   -0.25757807497318
C        11.93676102014536    2.14832594416971   -0.36181750946687
H        12.51800669392760    2.56155125195884    0.44970996651370
C        12.35838641154214    0.99096474780590   -0.99900923622161
H        13.26926484927887    0.50354362499993   -0.68332316444779
C        11.60710360515627    0.45077718228509   -2.02872497101045
H        11.93248811431267   -0.45756347278088   -2.51498374147869
C        10.43145961205716    1.06132219457452   -2.43246115462284
H         9.83567658620657    0.62592083956902   -3.22210375316955
C         8.95066258270650    4.24719331636920   -3.51264917217032
C         7.92660093396581    4.94994853553330   -4.14275425833902
H         6.90315512426820    4.77502851248431   -3.83358728038738
C         8.21534106677378    5.85409472178251   -5.14552734367417
H         7.41739780831019    6.39408819046417   -5.63413608924894
C         9.53246616273957    6.07090252474426   -5.52127659540805
H         9.76070585545063    6.77854228256270   -6.30466523906914
C        10.55517397858258    5.38465253810935   -4.88887732245300
H        11.58162124482067    5.55742210486668   -5.17868634116315
C        10.26929100060885    4.47640204664507   -3.88364014984619
H        11.06941035813469    3.94258160149651   -3.38891385716946
C         5.65086131028334    3.55765815033878    2.27573365652989
C         4.92177739819752    3.25073666940999    1.13040986710337
H         5.40393124787556    3.35148216667118    0.14939294260777
C         3.60878629190566    2.83025946567612    1.23680799599405
H         3.04368015588719    2.58481826788467    0.34928839803852
C         3.01803363211094    2.72582401555469    2.48594123162090
H         1.99464513118962    2.39089197585246    2.57209089430864
C         3.73126696509173    3.06207184591274    3.62589227906769
H         3.26023733583893    2.99611913428738    4.59613091656909
C         5.04356239986126    3.48711900003673    3.52517548265439
H         5.59597930282399    3.77508477661226    4.40982703033376
C         7.22880377592377    5.74671814033888    2.90448852713476
C         7.98155970751180    6.08937209657543    4.01972455427120
H         8.69136100419209    5.38483784851815    4.43101190932763
C         7.81889657648242    7.33343308220452    4.60564442041949
H         8.40421302928873    7.59615023512905    5.47504094702827
C         6.91170118035508    8.23884254276470    4.08249038692512
H         6.79067725184253    9.20869880964145    4.54215443935275
C         6.15994746393982    7.90169650327819    2.96704350772419
H         5.45341854152451    8.60845157906587    2.55674829484648
C         6.31932583954333    6.66222952955151    2.38003959226921
H         5.74212541464052    6.38532885865955    1.50567694882345
C         8.47922598465957    3.18826312888890    3.08649314664608
C         8.11332605183430    2.17556788947112    3.96045662073494
H         7.07305831855942    1.91289906463643    4.08348750102785
C         9.09453359364345    1.47645087941394    4.64301781954681
H         8.81194714403500    0.68207731358651    5.31862942292461
C        10.43232788639415    1.77835902893548    4.45375561694391
H        11.19109683186002    1.22297525647678    4.98556113900962
C        10.80133922453435    2.77903921412789    3.56763410745464
H        11.84645283807306    3.00332753829715    3.40857944773895
C         9.82784365133307    3.47790820775319    2.88240142178405
H        10.09411040292643    4.25713249838870    2.17016168857477

