75
CSD_code = GURKOU | q = 0 | S = 0 | Stoichiometry = C40H28Cl2HgN4 | MND = 4
Hg        3.44070419103914   -0.00004861049770   -0.00000827485985
Cl        1.96424864913692    1.22313701077467    1.29467455493593
C         1.44452526390416   -1.92285224912107   -1.78481068834123
C         1.55746320824138   -2.83475695727870    0.32238333561236
C         1.87981257378203   -2.73284006388087    1.68698938776552
H         2.25661555338346   -1.78829331317976    2.06289358035984
C         1.70692644584203   -3.81458414335963    2.50622930058085
H         1.95421457091014   -3.74082281087168    3.55458955796847
C         1.20892834318295   -5.02805184081550    2.00165582474686
H         1.08929807920571   -5.86644060956987    2.67177709571190
C         0.87140427952722   -5.15195386845387    0.68224415595377
H         0.47718276114932   -6.06960837340145    0.27492221103759
C         1.02716909615867   -4.05296715843119   -0.18514220748128
C         0.81636201047937   -3.12008735163943   -2.26016121675181
C         1.81141395524414   -0.81757382732455   -2.68183588114140
C         2.54728448646345   -1.06548753766510   -3.83868523647756
H         2.82545079870623   -2.07803513650193   -4.08940931387316
C         2.94965729666371   -0.01392314651400   -4.63942997651028
H         3.53254242558081   -0.21137510366665   -5.52647010448818
C         2.61601208116445    1.28866912120489   -4.30375769127860
H         2.93099552563803    2.10582798684595   -4.93609422254112
C         1.87578316570981    1.54332597977475   -3.16086491175154
H         1.60241144920908    2.55624504702048   -2.90303745030023
C         1.47838723230424    0.49706523086840   -2.34240391517578
H         0.84577483765909    0.68833151674817   -1.48340357949297
C         0.32735598375654   -3.24796283257157   -3.63804779621213
C         0.48341288242153   -4.46330175320252   -4.30096084061005
H         0.97150321342124   -5.27694470283072   -3.78684395976069
C         0.02966369030344   -4.61341000800277   -5.59734237174853
H         0.16388410979917   -5.55507046131297   -6.10876577192091
C        -0.59830347820293   -3.55869432747156   -6.23970826896500
H        -0.95256328217718   -3.67534959515608   -7.25317740756491
C        -0.78037272593099   -2.35613254299783   -5.57627175328165
H        -1.28543590485960   -1.53815499563012   -6.06839913273636
C        -0.32040834908068   -2.19652121010857   -4.28272600755008
H        -0.48432233949045   -1.26303345246936   -3.76511488768460
N         1.78485541355127   -1.80073133914673   -0.52030349881878
N         0.66002837367900   -4.15529736502323   -1.47426267953722
Cl        4.91727332117096   -1.22313499831296   -1.29464740574336
C         5.43695260667041    1.92285045355795    1.78482765015580
C         5.32400492013044    2.83474651854738   -0.32237677577605
C         5.00163476186045    2.73283452611403   -1.68697767744916
H         4.62480232460626    1.78829954220185   -2.06288445005849
C         5.17454825063109    3.81456763327590   -2.50622328203807
H         4.92724876605525    3.74080816882683   -3.55458102817006
C         5.67258075338860    5.02802474374501   -2.00166088206354
H         5.79222236190814    5.86640821912324   -2.67178712117447
C         6.01010352256044    5.15193133705039   -0.68224822895053
H         6.40433813168452    6.06958130555480   -0.27492873611440
C         5.85432814700232    4.05294806660118    0.18514181901172
C         6.06512781207887    3.12007984469484    2.26016943786910
C         5.07007351675959    0.81756781884458    2.68185254534560
C         4.33420429295929    1.06546774656445    3.83870574323433
H         4.05606798422032    2.07801748639375    4.08945363907173
C         3.93182567566282    0.01389266888357    4.63943232106211
H         3.34900372992779    0.21134326047574    5.52651299275906
C         4.26551316226427   -1.28869204005025    4.30376580333781
H         3.95052316078378   -2.10585636526210    4.93609330843374
C         5.00573729443258   -1.54333445434771    3.16086562520719
H         5.27903856266286   -2.55625944203989    2.90298744648937
C         5.40309166324478   -0.49706802461089    2.34239252132811
H         6.03569041854280   -0.68833559271466    1.48338009750014
C         6.55414810608885    3.24796796193233    3.63804730995681
C         6.39813178752282    4.46333336990500    4.30092233602162
H         5.91006135806916    5.27697577611702    3.78678565646562
C         6.85189894887892    4.61347334942315    5.59729355826106
H         6.71771366912951    5.55515500356981    6.10868949575813
C         7.47984443781057    3.55876020031370    6.23968656084880
H         7.83411885870412    3.67543634867479    7.25314864682501
C         7.66186717810484    2.35616888333529    5.57629020767054
H         8.16690424478785    1.53818928648109    6.06844115875598
C         7.20188246847928    2.19652619728301    4.28275521254908
H         7.36576278640005    1.26301717852408    3.76517320959448
N         5.09659181799552    1.80073105823116    0.52032290427999
N         6.22147332936416    4.15528175796359    1.47425842194825

