101
CSD_code = GURMAI | q = 0 | S = 0 | Stoichiometry = C52H42N2O2P2Pd | MND = 4
Pd       13.97580670972093   10.94358009453119   13.89105066387065
P        13.56957412556968   12.01205942778042   15.79045496360093
N        14.90311217356837    9.91443202240275   12.34461947400076
N        14.69782610825840    9.68669851300417   15.37603590408087
C        12.92262062349445    9.06400496042090   11.30260198216088
C        13.21845813221339   14.45572354153014   14.63329108530234
H        13.96428258240109   14.05062523567823   13.95183662264076
C        16.23755705150051    9.98326932406335   12.74404175373666
C        12.19226861753348   10.25266231907867   11.42294660181658
C        15.25398931209281   12.33354152495487   16.38441357061568
O        16.37440086005245    8.93205686838149   16.74354102943625
C        17.09657083457634    8.88189763476057   12.78630214171942
H        16.74437677943364    7.92592244602389   12.43433688437386
C        16.15212105795517   11.26111598027984   16.44525211909664
C        13.33080765476701   10.95412140338795   18.38762333402818
H        14.34221349186092   11.29352048431019   18.56021130762625
C        17.45536019822897   11.48975199261424   16.86544343878779
H        18.11990497233635   10.64123736078490   16.92903887146345
C        13.13232857794643    6.08944852170128   13.86604658324044
C        12.81623258353204   13.66905314865751   15.71045613214067
C        16.72412638656112   11.22303229468571   13.19237891155719
H        16.08719165984993   12.11772769378071   13.13428517821019
C        18.00937588298840   11.33906387149491   13.68478331473399
H        18.35939979867488   12.30353378782834   14.02896175518454
C        14.98916625584714    7.30150616582657   14.83130916935459
H        16.01697372672373    7.32862440205995   15.15491124163925
C        18.84931483498214   10.23588214815148   13.75798821309544
C        10.20518125649835    9.09812176005031   10.70280429868052
H         9.14982782752573    9.11615448947085   10.47215487416415
C        12.71977788685381   11.18163010804494   17.16045547274906
C        10.73647793609783   10.06485703367138   17.93952262719607
H         9.72946691429798    9.71526649936386   17.76499230832760
C        10.92737178366872    7.92282583247769   10.57902916801585
H        10.43700193176826    7.01713244123378   10.25369755712842
C        11.35046578219729    9.83657124288262   19.16108043758343
H        10.82138844690276    9.30699058904149   19.93928453501151
C        12.67999599244028   15.71085461104230   14.44142731670515
H        12.99689969310529   16.31876431788962   13.60696300970448
C        12.28076931459873    7.91398844934933   10.86393098474686
H        12.87283380568008    7.01798349436184   10.75335397463574
C        12.64291764266441   10.28192729187123   19.38265985986371
H        13.12187505376122   10.10025285841842   20.33320422776317
C        12.34518154679474    7.22469126078310   14.00569532110534
H        11.31022497649138    7.20190702774066   13.69026940707405
C        10.83529433729903   10.26026661334791   11.11481355117820
H        10.27014958162615   11.17915304692206   11.19280253037436
C        14.45343002678790    6.14933438995390   14.29397379843266
H        15.08103064647083    5.27501605754276   14.19309336075212
C        14.20836245962908    8.45523074522300   14.94115748062658
C        18.37251971592022    9.01556615799698   13.29383870338729
H        19.01290980137392    8.14601881750216   13.34178191685070
P        13.05122133791346   11.72899441705267   12.03589397785116
O        15.05374947054197    8.12947829005420   10.91482806267074
C        11.72826897474507   12.97417708793031   12.17589515327702
C        10.87938898609517   12.82369883474826   13.27022725561616
H        11.03687530744980   11.97179456473282   13.92901557721987
C        14.41256632232897    8.97615705517031   11.52945265729134
C        14.08089554076772   12.29989275110296   10.65608720372117
C        15.75964516692218    9.82879556483584   16.17444151207464
C        11.41929177337165   10.73294988546020   16.94177325716759
H        10.94794694677822   10.91400675012324   15.98253242199414
C        11.56529642091721   14.05688141451996   11.32280940044585
H        12.22111960247044   14.17809682885236   10.47201010849012
C        11.30892262796160   15.40398153259162   16.39026299442187
H        10.55975297029143   15.77634859345930   17.07359054408550
C        12.86688934640177    8.39213327871078   14.52806653371226
H        12.21597125747125    9.27169727561988   14.63786087867068
C        14.08492038681951   11.66788699367511    9.41842254681933
H        13.44013072918396   10.81894123663747    9.24133853540983
C        11.85669787133485   14.14775346378293   16.59162744027759
H        11.54157335835235   13.54134960616511   17.42928063889364
C        15.68264969273339   13.61017006680143   16.73525759635896
H        14.98859110835956   14.43909500928587   16.70403384260267
C        14.92072424468097   13.38874458895777   10.87870741202296
H        14.91191025398464   13.87910792336575   11.84534862009904
C         9.87136306531954   13.73477684141645   13.50695181641829
H         9.21334311652761   13.61228700460886   14.35448625038361
C        14.92570054797498   12.12282912276145    8.41786615676034
H        14.93223835803028   11.62551165883761    7.45945454942799
C        15.76095306167335   13.20404797073701    8.64397467929628
H        16.42008158085380   13.54958471550568    7.86158746369427
C        15.75594433349603   13.84030903185239    9.87535960289032
H        16.40876528710019   14.68227163747782   10.05333816403623
C        11.71606306678700   16.18267834068804   15.32049827149876
H        11.28182941516880   17.15950787824259   15.16877537747757
C        16.99241910039902   13.82456565083806   17.12981408333124
H        17.31377791029330   14.82157486056061   17.39433041650750
C         9.71671576247502   14.81945228438212   12.65604388167919
H         8.93721933351258   15.54282015883613   12.84291384794331
C        17.88135169078624   12.76429877744605   17.19226021440825
H        18.90231472241255   12.93057803913985   17.50301880390112
C        10.55966111384609   14.97700044339095   11.56922500473975
H        10.43423321612669   15.82185423334865   10.90790189183345
C        20.23204566056315   10.34538441796811   14.32646459494763
H        20.43446543538797   11.35949623988115   14.66326741248168
H        20.97570279278004   10.07156848372485   13.57832560414387
H        20.34700047071091    9.66738958905304   15.17153563855104
C        12.58552464193179    4.83059339596180   13.26318630643292
H        11.54327612640119    4.95630638226423   12.97905664256595
H        12.65715874697631    4.00516152216626   13.97102270138623
H        13.15813639147923    4.55772000085903   12.37722748252610

