108
CSD_code = GURVUM | q = 0 | S = 0 | Stoichiometry = C45H58CoN2PSi | MND = 3
Co        4.13287318793557    8.63503713772226    1.43726917713752
P         6.16030386001881    8.10196584105953    0.82319269225536
Si        2.93533198505554    7.70276111829725    4.01607710142690
N         4.25459759037956   11.56486220599032    0.70557949230258
N         3.12620882526944   10.33664303235093   -0.66458277543572
C         3.89756847078663   10.28143562770199    0.45626625473639
C         3.94137256525553    7.03216595139072    2.55596345321007
H         3.33194187625990    6.29749962300163    2.01154697066660
H         4.80340812868987    6.47777763352369    2.93710371701909
C         3.73220117687183   12.39504384602752   -0.25427602450269
H         3.88174280283834   13.45426555491636   -0.26411666479663
C         3.03187638249012   11.62565869683340   -1.11438131782402
H         2.48619153112017   11.91398383193631   -1.98741961883878
C         4.92714566918079   12.08406924572352    1.89169979796030
C         5.49798602396031   10.95507055437268    2.74588265985893
C         6.14719603439808   11.52437865725116    4.00436488231566
H         6.54390243309313   10.69981752076820    4.60613432353554
C         5.11742091225123   12.30385515617097    4.81905064538082
H         4.30351043630910   11.64160856113620    5.12133206646262
H         5.58002539279241   12.70314361149948    5.72434345544127
C         4.56795016124019   13.44529664290314    3.96707811015004
H         3.82690953699033   14.01125909377966    4.54292092009226
C         3.89889557901625   12.86961941861469    2.72093539150700
H         3.47316930468341   13.67833809294932    2.12209836917616
H         3.08446493360418   12.20104877316514    3.00887623901453
C         5.70883002392142   14.37398331506358    3.55302469948569
H         5.31831906067545   15.20144339993961    2.95543957407622
H         6.18144039355296   14.79885189915104    4.44107577250602
C         6.73882232708620   13.58512029150267    2.74449263723673
H         7.55563383166896   14.25119406210924    2.44413642326186
C         7.29409683615325   12.44770206596365    3.59792215811301
H         8.03766701077705   11.88525657579666    3.02896787661776
H         7.78321069835514   12.85397107007639    4.48594101558345
C         6.07771511279273   13.01533231756999    1.48908683758914
H         5.71052978833726   13.83942691480203    0.87467644348499
H         6.80602050705256   12.45515105220319    0.89972019532525
C         2.47174068331538    9.16872916788152   -1.24818851240788
C         1.84157459231073    8.35346912546021   -0.11514574004555
C         1.18659592816068    7.09614674903060   -0.67275672962982
H         0.75009795091591    6.52242066128085    0.15163495781055
C         0.08707806688383    7.49900902745281   -1.65532234275844
H        -0.40109373832313    6.60910422004545   -2.05804169674527
H        -0.67276194378354    8.09410965072404   -1.14306404529513
C         0.70542034677091    8.30840307263672   -2.79328672542177
H        -0.07957287559601    8.60768565628933   -3.49757135866698
C         1.37646411176236    9.56877803896899   -2.24070384259330
H         0.63360998344970   10.19921580989973   -1.74516113532046
H         1.80551959032395   10.12880475001689   -3.07492803714833
C         1.74296003011252    7.45335387644125   -3.52008045045760
H         2.17360209986980    8.01472008651830   -4.35291321652324
H         1.26517675760741    6.56159893970549   -3.93083195885614
C         2.84074346975519    7.05250336597715   -2.53580838998266
H         3.59667122867469    6.44683243023054   -3.04764721198176
C         2.23629302108520    6.24796212353893   -1.38746225830171
H         3.02462529107283    5.96694069673437   -0.68734613708996
H         1.78059110554827    5.33337101043889   -1.77264951339918
C         3.50667911419286    8.30615880207275   -1.97653563810761
C         1.86417765066865    9.21349758154261    3.48577218657607
H         2.32906482111866    9.76677248866206    2.66823945962500
H         1.71236663088167    9.90764144390672    4.30786112031164
H         0.88533540529874    8.89178238696765    3.14264296459925
C         1.71523912035971    6.40912762477781    4.72566996749120
H         1.03740774134388    6.04155354314779    3.96119529084815
H         1.11218278950716    6.82940729752098    5.52513661446106
H         2.24708440792241    5.55361064481310    5.12964357675918
C         4.01951628601727    8.25471086480228    5.49703960717813
H         4.69483025965087    7.45775121457007    5.79155850427273
H         3.40056144999121    8.49373292763564    6.35715491565487
H         4.62125663687299    9.12956146244052    5.27459853002724
C         7.32880354564481    7.40703205596037    2.05190917599451
C         7.14284026380461    7.72571316879043    3.39134629686756
H         6.29337677300581    8.33132066371638    3.66721797110155
C         8.01547937836055    7.25054202890507    4.35320748670677
H         7.86244232655608    7.50222243549642    5.39288690954639
C         9.08149970644626    6.44706303743996    3.98374003750092
H         9.76287373655630    6.07030488754797    4.73287373171543
C         9.27104644246569    6.12307369068335    2.64996667564509
H        10.10111463225406    5.49461954259878    2.35988144469231
C         8.40200063145099    6.60120393086170    1.68571787232157
H         8.55815109420364    6.34840978790165    0.64625784809656
C         7.23213791378981    9.41348234205581    0.10570145619517
C         6.75549128006324   10.11456243529599   -1.00040371291791
H         5.80706419216173    9.83123349630763   -1.43116332748071
C         7.47555743562386   11.16095419925267   -1.54320812839158
H         7.09348706685489   11.68934473035339   -2.40531291164546
C         8.68281043352070   11.53985284112579   -0.97621037072854
H         9.24558560967865   12.36156983181621   -1.39434848133824
C         9.15701273649800   10.86421763924555    0.13522184695413
H        10.09312431963007   11.16001072419799    0.58733712125477
C         8.43809656860714    9.81088310755199    0.67460893014239
H         8.82030273199389    9.29686670367131    1.54484498978042
C         6.31107032112878    6.79768864561911   -0.45761858820600
C         6.92868542333914    6.95948194790248   -1.69258929913660
H         7.39910443483221    7.89779355623615   -1.94814607242716
C         6.95229532295444    5.91554753745132   -2.60182052319940
H         7.43631319767553    6.05224699769981   -3.55860122896111
C         6.36471137346882    4.70146223949521   -2.29127077673955
H         6.38407985632070    3.89147131912121   -3.00583532242986
C         5.75476917717640    4.52966751443482   -1.05851510603321
H         5.29879919774808    3.58247450901724   -0.80883960974676
C         5.72658589083657    5.57074491175813   -0.15154374737674
H         5.25122918386492    5.44864315280503    0.81007291068492
H         6.25216904716875   10.41909919370171    2.16853764975869
H         4.70195004596555   10.24823116603386    3.01135134655022
H         4.28393716718890    8.01995928062512   -1.26438022925287
H         3.96576444674450    8.88057498221884   -2.78609375003780
H         2.63940983440488    8.07138939994434    0.60894203838486
H         1.09990885536508    8.96473522975624    0.40435173974637

