98
CSD_code = GURWEX | q = 0 | S = 0 | Stoichiometry = C41H53CoN2Si | MND = 4
Co        5.55700482283398   13.63221329773157    3.23032047787542
N         3.57877921292213   15.31391485631279    4.64233833993160
N         5.32060113296731   16.43234211576683    3.99440962242979
Si        6.42755626811655   11.23741769801974    4.78403492629550
C         4.75489609334307   15.19139264623184    3.97686523622888
C         4.62146209268136   13.79423075290036    1.39536243866984
C         5.81871166081749   13.42990672986312    1.31659407890840
C         6.15217178836188   13.10713778329493    5.01799246301864
H         7.10078832478799   13.60325763304824    5.24618711069386
H         5.51829667562120   13.28320130258972    5.88844332882818
C         3.42801634459039   16.60556210991702    5.07942772775440
H         2.58853205031685   16.94740118342702    5.64644748697671
C         4.50542095647256   17.30177865780811    4.67074592575208
H         4.72679264974076   18.33430280939931    4.82947567988469
C         6.53930454957508   16.85793830903242    3.29430622661318
C         7.05433168448483   18.19458693835106    3.84423076275406
H         6.31228744320755   18.98190173602181    3.70029731020648
H         7.26220093175834   18.10097924738049    4.91247317673919
C         8.32221509239916   18.61236560706638    3.09495223295773
H         8.67618292513185   19.56368489390771    3.50876481342376
C         9.40872252008071   17.55251200075903    3.25195341271869
H         9.66584692211552   17.43413039057870    4.30691440177118
H        10.31004727813077   17.86392624663047    2.72007986335715
C         8.89163829716403   16.23080108726376    2.68763520948001
H         9.65774218674278   15.45679176541024    2.80218949455552
C         7.64377481709919   15.81502858742756    3.45947070247506
H         7.27115291419242   14.84812092284640    3.09121648162084
H         7.87906320337323   15.70826496364311    4.51966200308692
C         6.22173909557837   17.03784598559864    1.80368447089145
H         5.43970174541975   17.79325661695344    1.68619272075567
H         5.85336046795840   16.09381691444744    1.39995544072433
C         7.47979306148630   17.46848442572129    1.05117680659382
H         7.23587505986194   17.59046753509525   -0.00977829134486
C         7.99241084191969   18.79287899633976    1.61401653811260
H         7.23515281803124   19.57100225464151    1.49131834403259
H         8.88521447997229   19.10800790585671    1.07021271795084
C         8.55781524956944   16.39856893085944    1.20710301779202
H         8.20512559773073   15.45267726319880    0.79443075212037
H         9.45381649554558   16.69059770273603    0.65508169356960
C         2.52765304381621   14.33077929413852    4.92961002124086
C         2.43945783687086   14.13334720856176    6.44997957055976
H         3.38787006217821   13.73220279127971    6.81254207227987
H         2.26650832904524   15.08845045948985    6.94997432867657
C         1.30209209777652   13.16862697420111    6.78354493850225
H         1.24428643856365   13.04755212266491    7.87122427462067
C         1.57398097901265   11.81609129066385    6.13108537016087
H         2.51252816861250   11.40640605371417    6.50863776461571
H         0.77515131047366   11.11417740077398    6.38051337044828
C         1.65703254201314   12.00118653456977    4.61797380571217
H         1.87139764723894   11.03774656887440    4.14356479809134
C         2.78206323294169   12.97629955156453    4.27352335176572
H         3.73232779956982   12.57126936452283    4.61664266362154
H         2.82060328191080   13.10156607301645    3.19337955148408
C         0.33116732941358   12.54515435587285    4.09167919999534
H         0.38050288224778   12.66253987546632    3.00677630966796
H        -0.47994374134528   11.85046496701572    4.32051190611684
C         0.06106832848243   13.89676296691881    4.74610885839061
H        -0.88525553112995   14.30347102570580    4.37165714998117
C        -0.02057268459550   13.72961648074045    6.26302460404394
H        -0.22962631321461   14.69324181439812    6.73428797613969
H        -0.83662151186614   13.05043992363741    6.51843949982450
C         1.18785816319090   14.86972638585088    4.40130763935952
H         0.95817094792054   15.84209608746286    4.83899589805015
H         1.25555945125958   14.99642457165313    3.31910274735480
C         3.28684673502857   14.09043014997837    1.01054697637619
C         2.46729129789034   13.06287710279329    0.52430161291457
H         2.86645987307868   12.06119304967389    0.45044307738078
C         1.16469305698030   13.32479135222452    0.15232988875997
H         0.54245299188282   12.52227819413722   -0.21771534368197
C         0.65151563011752   14.60937327914240    0.24989944695021
H        -0.36875609811030   14.81059722384839   -0.04087900498113
C         1.45583904569248   15.63320804034707    0.72644982592919
H         1.06062537006263   16.63636821601869    0.80524177930796
C         2.75759319803493   15.38097433760269    1.11163550269950
H         3.37609556135245   16.17723069143527    1.49794537882493
C         7.01039611459653   13.07019377124201    0.61480847280138
C         8.16909935975500   12.69736270017613    1.29913612284336
H         8.16002732282587   12.67884369225075    2.38108797989128
C         9.30857436173794   12.34940677183772    0.60163692745778
H        10.20022083334032   12.05922643517571    1.13900661429201
C         9.31061543282546   12.36935341299456   -0.78415080430095
H        10.20237479992807   12.09588211714503   -1.32888240402711
C         8.16404367098387   12.73816353910960   -1.47095142530631
H         8.16378239112255   12.75175104196770   -2.55161255822981
C         7.01875940654468   13.08704842968442   -0.78256619946804
H         6.12240658318821   13.37582077671727   -1.31300722138857
C         5.51724117083602   10.23988041895375    6.14224747231731
H         5.71240953169077   10.64581371893071    7.13018723776418
H         5.83887139031502    9.20304652232403    6.14442769015122
H         4.44247188713103   10.24691439265382    5.98792033911552
C         8.27977523167099   10.76816270443584    4.91811711801424
H         8.89707695694897   11.33894149375552    4.23136463285906
H         8.43226343363822    9.71603926981182    4.69592271934541
H         8.65460743034080   10.95076507239392    5.92051679945382
C         5.78248829866455   10.55127930898233    3.10751522593009
H         4.91869615181207   11.10571313868539    2.74387755273439
H         5.47484595467393    9.51449401886572    3.21552612540280
H         6.54648978090014   10.58213866792054    2.33579962508506

