116
CSD_code = GURWAT | q = 0 | S = 0 | Stoichiometry = C53H58CoN2PSi | MND = 3
Co       12.92603307370414    9.07704444805019    5.12048981011936
N        15.43974159302721    8.84356202976824    6.84748691302008
N        15.34024110286868    7.49277406865483    5.16884385234859
P        13.39113176101763   10.97161406324656    4.12720408577328
Si       10.71351670912870    9.18711494538885    4.87088889363763
C        14.68975971995021    8.52775007315407    5.76761369287776
C        16.54272964859543    8.03026626220842    6.90998333810702
H        17.28113731348619    8.09334598396667    7.68151628499180
C        16.48231327605476    7.18752886143516    5.85649338738989
H        17.16146645477271    6.41219729016968    5.57229321333914
C        15.14177162864739    9.81091993433304    7.89918512100868
C        13.89499468481378   10.62628660408532    7.57043160281230
H        13.04479822127413    9.95185053365304    7.41542313004115
H        14.06679856256857   11.18947049621556    6.65168575762298
C        13.59269980378874   11.60513926728333    8.70176662653857
H        12.69253852640641   12.17417276539064    8.44776192595001
C        13.36317472193691   10.84403948518664   10.00461752659383
H        12.50810769102583   10.17443421130077    9.89484976382812
H        13.14273989399572   11.54430417593080   10.81322671736538
C        14.61689286201470   10.04008615484627   10.33880224333688
H        14.46073122831821    9.48507607406275   11.27066593434781
C        14.89946066500670    9.04941955089156    9.21094855352697
H        15.77147566737362    8.44180365201276    9.46395728199452
H        14.04560733495991    8.38026038136355    9.08130702207022
C        16.32440484722601   10.77330019409594    8.07019991421000
H        17.23737570043148   10.22289259429744    8.30601669597428
H        16.48903719186184   11.31217452979968    7.13497286270520
C        16.02470496818417   11.75735917768498    9.20027626623782
H        16.87747818954918   12.43604827338012    9.31558792239274
C        15.80526333882072   10.98723472320288   10.50236422347382
H        16.70413564798355   10.41982262999158   10.75658929265075
H        15.61129090326820   11.68643014244898   11.31833722369721
C        14.77229892954960   12.56244598256360    8.86186873552089
H        14.56672214175929   13.28185122438879    9.65733566488757
H        14.92789799279938   13.11821438564868    7.93433888205458
C        14.83854993629052    6.80622387004624    3.98014562016174
C        15.58504896613130    5.49543944117241    3.71987878204014
H        16.64411508555396    5.69211313095213    3.53571679158750
H        15.50015996716882    4.83575025513659    4.58742832702500
C        14.99082879656341    4.80934960545417    2.48650753708562
H        15.52948496226806    3.87043669748209    2.31356846327937
C        13.50919494277436    4.51358630227222    2.71140801538482
H        13.38587746175023    3.84519431211408    3.56697123156273
H        13.09445459784252    4.01243544536305    1.83483329993378
C        12.76723558789579    5.82644965886440    2.96171430205241
H        11.70504286405190    5.62493588352840    3.13075276616894
C        13.35477317628493    6.49892419195394    4.19516046387292
H        13.23758309969604    5.85135271638658    5.06840899468287
H        12.81912061586386    7.45957043061763    4.37939433703023
C        12.92379192708431    6.75134951090479    1.75722397665931
H        12.48409262642697    6.28765004185266    0.87240566141675
H        12.39617114194713    7.68901968445879    1.94344197493000
C        14.40657056657014    7.03056941697277    1.52280623544991
H        14.52170215328755    7.69612203290575    0.66028222950854
C        14.98993312545833    7.71397171369314    2.75576925185612
H        16.04651594624440    7.94551337509987    2.59341753086906
H        14.44851349318210    8.64562557956987    2.94241058830869
C        15.14778450093474    5.71874487311304    1.26840836935993
H        16.20648203527991    5.91639202734571    1.08237382799264
H        14.74017134292411    5.22518483425125    0.38412055174320
C        10.59689959881811    8.87560364369049    6.75704501357903
C         9.90586884944952    9.73242192992186    7.60572670873740
H         9.35565126886029   10.55923632938017    7.17866472505756
C         9.89370895162739    9.53521378809784    8.97387100107053
H         9.33613415238135   10.20463327218532    9.61515296340489
C        10.59522456212015    8.47572293102431    9.52932271316704
H        10.58272288073109    8.31459275046141   10.59872927936056
C        11.30755489205351    7.62217493671789    8.70409779707591
H        11.85585656576292    6.79170265950177    9.13128213255654
C        11.31066046877356    7.82750115794252    7.33446976997132
H        11.84983516755703    7.13159940873162    6.70155138300957
C         9.83361824851107    7.72493556790465    4.01349398815279
C         9.44426728227520    6.58513659910175    4.70556994946518
H         9.60720644908229    6.53188865016212    5.77281281856743
C         8.83823694661391    5.52278467335999    4.05866265701241
H         8.53980769302273    4.64710749335604    4.61969033977965
C         8.61186589160894    5.57925345367027    2.69385823966130
H         8.14164875613459    4.74944258244662    2.18478698513723
C         8.98802762137188    6.70993758835451    1.98787786588321
H         8.80935095585522    6.76551509965617    0.92250417795783
C         9.59242983215115    7.76496963673104    2.64553373884883
H         9.88035197125288    8.64344295757509    2.08584255475298
C        13.34551157876728   10.90052359272770    2.29761143973944
C        12.10013784248345   10.65053293686315    1.72496367760064
H        11.23897502966580   10.57401046694834    2.37357293506132
C        11.97043108959765   10.50798989516010    0.35794627206577
H        10.99966292501824   10.31627499621009   -0.07575068722158
C        13.08666385129057   10.60785322998228   -0.45854745276969
H        12.98906662564727   10.49115683523774   -1.52787109077810
C        14.32604467597326   10.86195507259026    0.10211376470746
H        15.19792052651211   10.94905802957346   -0.53067980479257
C        14.45874374954259   11.00772535417958    1.47283375255501
H        15.43195341860828   11.21207184195441    1.89531155237452
C        12.29151284948224   12.41318880721591    4.37862683280376
C        12.19583190966370   13.43763180203343    3.44088956217626
H        12.77690580837602   13.39043125241721    2.53015093732462
C        11.36231097693831   14.51647524407552    3.67273722814222
H        11.28958764512675   15.30600228434052    2.93840718116562
C        10.62308325518988   14.58822485730687    4.84251972349417
H         9.97234999290140   15.43226807932675    5.01915346152195
C        10.71897756160669   13.57464629672071    5.78134952249642
H        10.14324774556975   13.62704108658664    6.69416072628851
C        11.54661831744755   12.49140895746151    5.54829682818648
H        11.61150844253987   11.68714344772451    6.26503288258338
C        15.02434411339947   11.77532928616673    4.41134490487286
C        15.16385099987839   13.08490466285153    4.86006329117109
H        14.28979922489186   13.70188936406889    5.00934964890021
C        16.41886931710120   13.60735090593263    5.12285262279999
H        16.51102573173149   14.62630575682795    5.47084720155285
C        17.55248225699876   12.83283229775912    4.94542657857644
H        18.52982032062572   13.24399257727643    5.15105602704740
C        17.42382190547287   11.52159849107867    4.51477414947254
H        18.30254352037901   10.90548525544142    4.38562216404514
C        16.17061833157349   10.99739221528124    4.26189334697636
H        16.06993935295844    9.96781750672523    3.95389893707366
H         9.72533918529508   10.29433000237933    4.64241558809449

