83
CSD_code = GURYAV | q = 0 | S = 0 | Stoichiometry = C24H52P4Si2W | MND = 8
W         0.79792907317489   36.20483521070553   -7.33470622909771
P        -0.25466328877229   34.81709490492531   -9.09225741448102
P        -0.18023617038383   38.37801961238183   -7.95167398885969
P         2.80698999735365   34.75129404102740   -7.01846023336237
P         0.67929358237952   36.70464800144027   -4.92137030388570
Si        2.09696321939322   36.75794224423927   -9.46788484875738
Si        4.17329559682143   37.85446443387942   -9.49426072382063
C        -0.78090868875485   35.26111252646189  -10.80576445521899
H        -1.15772369121369   34.37345127936191  -11.31446514613171
H         0.06738084394801   35.66035970384106  -11.35535332741023
H        -1.56820474402992   36.01024455509380  -10.76885633767416
C         0.58224485147745   33.23432409738950   -9.52548989418116
H        -0.09189469004625   32.57543570666895  -10.07427516499574
H         0.90472790478371   32.74479695358406   -8.60798196496496
H         1.44900592487899   33.45953197610273  -10.14398218999242
C        -1.85668758754697   34.12123396391816   -8.51233427578535
H        -2.27574206454298   33.43431465763478   -9.24942645380232
H        -2.55231118656598   34.94090849059494   -8.33467091067206
H        -1.68809668440852   33.60189478171949   -7.56993717177762
C         0.89030137681394   39.83712044207876   -8.27576964555767
H         0.28440924901143   40.73140589426976   -8.42430365105389
H         1.49342130886169   39.65652425884370   -9.16194289894622
H         1.56294832138195   39.98650869329023   -7.43240353625046
C        -1.38437905481016   39.18055658537461   -6.80345826172812
H        -1.74250045120351   40.12035667683502   -7.22604700376122
H        -0.91726728788140   39.37612750817556   -5.84092001545884
H        -2.22703622561923   38.50418953721945   -6.66368799116275
C        -1.25905293591089   38.47436780458111   -9.44173130671278
H        -1.64921013342805   39.48440245552725   -9.57055616825096
H        -2.08714990484975   37.77899080764027   -9.30758480587950
H        -0.68717083927273   38.19142073325899  -10.32192095936705
C         2.60156812622550   33.22226379805625   -6.00868631903455
H         3.57007514962514   32.77831427486817   -5.77586531518288
H         2.00729367264318   32.50987670969747   -6.57979396316305
H         2.06660076936748   33.44946926263040   -5.09167552857162
C         3.88764263284898   33.99047834800384   -8.31750708117606
H         4.72844853915382   33.49120583243154   -7.83512317046954
H         4.26096185664494   34.76056456615010   -8.98733211156118
H         3.32881580440879   33.26133001846967   -8.89809051289839
C         4.18395600352676   35.57337349075545   -6.10732856976483
H         4.89398097522358   34.83888602126419   -5.72520655722345
H         3.78792807812005   36.16863049477967   -5.28771416402319
H         4.69197200654780   36.23946392403569   -6.80326158282100
C         1.37599621841182   38.29073785827635   -4.29731222035218
H         1.01769039337300   38.51097648930330   -3.29165058008457
H         1.11185636716519   39.09970318950061   -4.97469355968851
H         2.46183805873485   38.20483435929728   -4.28646672657214
C        -1.01787261258276   36.73698590137625   -4.20753746641560
H        -0.98668107824110   36.91363784381802   -3.13200794156109
H        -1.46893241926100   35.76589847837185   -4.40832810151932
H        -1.62109842379719   37.49992770420098   -4.68866025293898
C         1.38004259479551   35.59991197818434   -3.60674935291925
H         1.24866791764521   36.06103562666975   -2.62731673560350
H         2.43720333739150   35.40895223212779   -3.77237680350650
H         0.83839737568741   34.65507939594379   -3.63022695092226
C         4.30039808790902   39.46743428313642   -8.50572325894580
C         4.51063480941801   40.70222012428905   -9.11217462302303
H         4.64128400861865   40.74695279907227  -10.18402279057783
C         4.56535808227137   41.86955904473609   -8.37173090792512
H         4.73249026563897   42.81595729396656   -8.86750999927441
C         4.41091590908450   41.82825437137247   -6.99668369392924
H         4.45360036002382   42.73841190086637   -6.41495501243812
C         4.20531932284291   40.60939678236876   -6.37187806467113
H         4.08582755653944   40.56759382520433   -5.29711112745135
C         4.15151479286760   39.44869471400756   -7.12136952594624
H         3.97774173556064   38.50498232362119   -6.62574727944224
C         4.66728911875361   38.26404926015298  -11.27122877413993
C         3.84317091639120   39.05593608365274  -12.06484391778445
H         2.93120240928589   39.45651508525407  -11.64274736562832
C         4.16224901730662   39.33937066287897  -13.37978019668841
H         3.50846704375090   39.96297430413974  -13.97448699843626
C         5.31974438677235   38.82232694599746  -13.93746849557663
H         5.57302067347528   39.04054692289959  -14.96541649763381
C         6.14776053874509   38.02227305230140  -13.16906585348993
H         7.05164476406878   37.61210151694514  -13.59838845804323
C         5.82017814181845   37.75061113972609  -11.85287895331365
H         6.47396715276219   37.12798064969250  -11.25864148119838
H         2.46369998086882   35.64024327922236  -10.41591056624839
H         1.42178390082701   37.56353220074053  -10.55176645304399
H         0.30964374979955   34.76775778998312   -6.65584102339514
H        -0.83645897412201   36.28335381564887   -7.06717010210589
H         1.99704292072286   37.27519389792097   -6.93343828666612
H         5.32528236325392   37.06245959388597   -8.99213144598474

