17
CSD_code = GUSCOO | q = 0 | S = 0 | Stoichiometry = C4H8AuBr3S | MND = 4
Au        5.67798736149498    5.50668336572498    4.60935249798044
Br        4.14617725368204    5.66853381929508    6.50180261082393
Br        7.32403237674111    5.42022019411962    2.80154185001749
Br        3.86914356783214    5.89237517376136    3.02668944017558
S         7.60059453575353    5.10922165769348    6.15156450095712
C         7.75258773450430    6.66151737839354    7.10939927598371
H         8.58257556541417    7.22449866568112    6.68835226749442
H         6.82714343669135    7.22686139908163    7.01176125973997
C         7.07584964317795    4.12841956828006    7.61132724435185
H         6.14405502050856    3.61469125150175    7.38955912014650
H         7.87042348860007    3.39755360683982    7.75793380041387
C         6.95320237488504    5.09766478327242    8.77829761074802
H         5.94686655697346    5.51735909552645    8.80317417874870
H         7.13553751750326    4.57656339797191    9.71680061492807
C         7.97166600302196    6.20624973869982    8.54071910452661
H         7.82687878074167    7.03895108430656    9.22752137544860
H         8.98647878247396    5.82343581985053    8.66100324751478

