56
CSD_code = GUSDEE | q = 0 | S = 0 | Stoichiometry = C29H19MnNO5P | MND = 6
Mn        0.23920096142043    6.63695634968527    3.19558748745761
P        -0.72775826218618    3.48079323621591    6.35217254568163
N        -1.94705580335497    4.52625635216888    6.04900712723963
O        -0.34656492321100    5.18560642064210    4.63388353331669
O         0.86084032770149    8.67606675517517    1.17311727859291
O        -1.85823179895949    5.25741471497829    1.61030330366959
O         2.64261383934477    5.06018802124119    2.57847029169636
O         1.07989783796890    8.19475914179605    5.54460422989164
C        -1.52221202379658    5.33843032739364    5.08269847471641
C         0.62640158142484    7.87732352870830    1.97078139705637
C        -1.11526960276414    5.89241305533720    2.25537958910293
C         1.71245493212167    5.69598724393521    2.81330996781808
C         0.79219241501667    7.61991095782194    4.59468959991912
C        -1.83038741004139    7.00301347094122    3.35527026599986
C        -2.59199126797985    8.02770935177968    2.77514693887801
H        -2.25077826931066    8.49117029571800    1.85762943164109
C        -3.77983537500262    8.44483236164226    3.35030116724512
H        -4.33518302977926    9.25139197489177    2.89436484045144
C        -4.27070810126587    7.83178626798033    4.49578960829622
H        -5.20517455631743    8.15953579850160    4.92603017009859
C        -3.56345375740436    6.79793050708320    5.07967919815943
H        -3.92123914878316    6.29679928115756    5.96649247697713
C        -2.35724950625443    6.39563969213374    4.52110229702818
C        -1.36581612265341    2.41758946482527    7.66182883163779
C        -2.53684831384024    2.76225543977933    8.32127244216449
H        -3.06623232676242    3.64984270764642    8.01005054872240
C        -3.00721849600068    1.96073919669913    9.34637022121669
H        -3.92033982791114    2.22243194406924    9.85992069576095
C        -2.30667181956286    0.82368774423245    9.71400906562410
H        -2.67451762889150    0.19943189341645   10.51473349421784
C        -1.13489958430835    0.48177844906496    9.05644744650582
H        -0.59275176595567   -0.40617053831540    9.34494664252817
C        -0.66093008386799    1.27810301649151    8.03102938873801
H         0.24787943753299    1.01617331310488    7.50667182670463
C         0.76794522577094    4.24913391949152    7.02947769056808
C         0.66217295037638    5.53229799665514    7.55290610465321
H        -0.29409148879155    6.03884799536202    7.53199381053049
C         1.77698514270224    6.15422488316192    8.08333165728088
H         1.69868257990215    7.15762962396257    8.47382969993058
C         2.99347988651017    5.49174595134692    8.10122437934202
H         3.86686911940187    5.98074308681049    8.50590436545247
C         3.09313210447340    4.20355737629254    7.60088917076475
H         4.04161141882628    3.68746627494863    7.62116472629551
C         1.98271556887850    3.57567337643274    7.06623376901409
H         2.06152247631370    2.57254042205237    6.67235229072571
C        -0.33926125774838    2.39662162031839    4.95393084896374
C         0.78686911345248    2.55927483224283    4.15813235692351
H         1.51019034415887    3.32637182119891    4.39403804961972
C         0.95810942896050    1.74763437320150    3.05113887483704
H         1.82753465312748    1.87849533910075    2.42489113976567
C         0.01123224968011    0.78523581393650    2.73898500774846
H         0.14629611433525    0.16000651560440    1.86899950101427
C        -1.11538011289294    0.62963967685381    3.53145441963369
H        -1.85679947949783   -0.11465826699384    3.28129623104842
C        -1.29550376922746    1.43708750138538    4.63923880054061
H        -2.17547479626863    1.33995212754264    5.26289528128665

