43
CSD_code = GUSJOT | q = 0 | S = 0 | Stoichiometry = C16H24ClORh | MND = 9
C         0.97325035177274   12.15879001795890    6.29818546855197
C         0.74188264037186   10.91596848856643    5.66667128101716
C         0.43416744576065    9.83604290704847    6.55994421661305
C         0.47703362302123    8.42409052618574    6.19079025287016
C        -0.17553800022775    7.50310498681300    7.19803393582032
C         0.82391306515777   10.76598942069730    4.17667664895140
C         3.99169302537389    9.07616142531603    6.57284317065822
C         4.02722990000898   10.06068583396888    5.52975590711451
C         4.36166396115549   11.32896652673630    6.11075696948090
C         4.44043495962340   11.15010202404887    7.52092212216168
C         4.19785010456471    9.74589358093989    7.80599411438889
C         3.86990357037385    7.61140395115496    6.32507637133609
C         4.03487853168122    9.71505727985727    4.07748728352244
C         4.71821835554196   12.56982672772215    5.35367208614533
C         4.93364762991672   12.13537523147070    8.53243513229334
C         4.39424272401038    9.12890567638304    9.15392841938299
O         1.01582166666845    7.97937829163786    5.18399178912684
Rh        2.40078177514349   10.68897628159607    6.97351479273721
Cl        1.61807293761311   11.08701592736055    9.12649398582636
H         1.26898851332066   12.99772900651714    5.67348432317396
H         0.39187210788693   12.44073603778869    7.16958000431964
H        -0.18590609103256   10.06116283063453    7.42479034675493
H         0.20883649917873    7.70999182389910    8.19405985008648
H         0.01286116222119    6.46559094876325    6.93413672320401
H        -1.24951699172633    7.68170544564931    7.20573197270599
H         1.51108694609707   11.48736678454484    3.74001884354168
H        -0.17181715806708   10.96530319959746    3.77581785498155
H         1.10455113370308    9.75761920974848    3.89004331445952
H         2.98062456626583    7.39283322585561    5.72993024964877
H         3.81130612663007    7.05413119688476    7.25618479746464
H         4.73692852049980    7.26544113302111    5.76080856011276
H         3.30310872896405    8.93900864085552    3.86544244312105
H         5.02097491162186    9.32973578733483    3.80985259281607
H         3.82901266841248   10.58050635315233    3.45342895118711
H         5.79006285868480   12.56934578300860    5.14631610306253
H         4.48291064927194   13.46354906583143    5.92715949444033
H         4.19091846073863   12.61879240342019    4.40357552096542
H         4.32708743107704   12.09294905358634    9.43513392925386
H         4.90399331565618   13.14945291266054    8.14233358131606
H         5.96364618402236   11.89455123562158    8.80159028512930
H         4.06838146741648    8.09195339886653    9.16425810972793
H         3.83142754492005    9.67388738490784    9.91021193801838
H         5.45171217670706    9.16892203238990    9.42043626250756

