49
CSD_code = GUSKUA | q = 0 | S = 0 | Stoichiometry = C19H24F4PRh | MND = 8
Rh        2.43403481392837   10.65038169785553    2.96990476229818
P         4.27917303223317    9.40762203834000    2.49363384173595
F        -0.07342408916829    7.34458567623936    2.87128983753862
F        -1.01385521126190    7.10717870515036    0.31446503894141
F        -0.24442518856261    8.84480540813068   -1.62092165437518
F         1.49330631181148   10.88451000363850   -1.06863551810058
C         2.70761165803053   11.47323790535607    5.03052703624486
C         3.29859339291796   12.37567757934092    4.05125181586762
C         2.26072275515331   12.87964353198404    3.22669526170320
C         1.04638083520143   12.20781470848270    3.60942670363983
C         1.31655880000593   11.41686452330003    4.78417753848514
C         3.39151919605753   10.98258076365814    6.27207589030322
C         4.68561775875552   12.93836919697896    4.15299997061257
C         2.35583522267491   14.00448719244691    2.24222819259033
C        -0.32285623188443   12.55597451994504    3.11031769517741
C         0.27971590439008   10.77864547093699    5.65453777679989
C         1.60942843268969   10.10953671609874    1.19298805804593
C         1.22064186883340    9.23219270760925    2.16994757586259
C         0.33533435276511    8.22330799070745    1.92846709075463
C        -0.15606504967897    8.10011979326707    0.61751100311243
C         0.23648816911535    8.98827111291475   -0.37111771961282
C         1.13429677003420   10.03047700439556   -0.08299674278658
C         4.04011244933778    7.87140271266791    1.52630831795281
C         5.30981482539409    8.76787140250367    3.87385092649282
C         5.54799453803117   10.24968366497797    1.46887762369248
H         3.19947403182912   11.68159779487280    7.08876936307395
H         4.46738912396557   10.91532095024598    6.13360410988173
H         3.01999426914909   10.00449856137979    6.57013523568168
H         4.69648221531287   13.73294844266006    4.90178799290063
H         5.00965987412328   13.36179957793639    3.20510206597681
H         5.40527180946069   12.18077082374293    4.45740557911861
H         2.06008531750881   14.93638486607840    2.72883989355821
H         1.69656515951471   13.84209565874612    1.39261583755999
H         3.37073528698905   14.12075876983386    1.86999490660452
H        -0.71587769900911   13.39944031038035    3.68133676973563
H        -1.00625373374259   11.71759002866592    3.22516571515657
H        -0.29771453434740   12.83648740470515    2.05983035447914
H        -0.14259563579189   11.53235235368910    6.32247482830492
H         0.70910949701238    9.98531765898361    6.26107279916142
H        -0.53058454300446   10.35910617964681    5.06273812031286
H         4.99811240315737    7.38663696960355    1.34273471043304
H         3.56422046103400    8.11609080257121    0.57914074195686
H         3.38671759727051    7.19847455882879    2.07774596201303
H         6.13706941805950    8.17576398393867    3.48481403478720
H         4.68885317420350    8.14884075733107    4.51853945686202
H         5.70416557174332    9.59654618820473    4.45759934650966
H         6.38004098178798    9.57941106766174    1.25768986170738
H         5.91326853815918   11.13279845313581    1.98870155879169
H         5.08175609877594   10.56222581013443    0.53605043244234

