51
CSD_code = GUSKIO | q = 0 | S = 0 | Stoichiometry = C19H24F5IIrP | MND = 8
Ir       -1.67280892456184    5.71304463205321    3.70443226871348
I        -3.55702577353398    5.63569941235974    1.79292899210110
P        -0.46156241811375    7.06703573783832    2.24068380199172
F        -0.58380867553361    8.67334180481508    4.64101998270886
F        -1.69983786384617   10.62906371974466    6.06709100498701
F        -4.28883635024125   10.39826713836225    6.96648058674655
F        -5.68591673370180    8.10732514695942    6.39561182839304
F        -4.56972458846911    6.15921612947269    4.96773929360418
C        -2.54363812346906    7.34779928773694    4.66019450851234
C        -1.87471620401279    8.51347662880724    5.02301427956235
C        -2.42846128415444    9.53993146562041    5.77647471532650
C        -3.73314506702316    9.42567135153720    6.23488360206359
C        -4.43904617082198    8.26802816795481    5.93426236262739
C        -3.84254105425707    7.26991965877861    5.17269072341744
C        -1.15959545289889    8.65211760151613    1.64857822551966
C         1.27479217705878    7.51032413131170    2.62881855521586
C        -0.18336219229731    6.22746401610694    0.63224443140031
C        -1.21986618044711    3.47088197612313    3.67134856644205
C        -0.03764067764465    4.13271416151227    4.05112302047931
C        -0.32366604820511    4.90883943079688    5.23467864691003
C        -1.66140582882693    4.59015188306366    5.65147783026688
C        -2.23753250269390    3.75936157828952    4.66122479668290
C        -1.36473360273330    2.45408326789517    2.58645324545908
C         1.32040785018544    3.89581214991457    3.47267884169285
C         0.69017767114113    5.60767984083405    6.08027913189043
C        -2.26063823940181    4.94192678258641    6.97439373400231
C        -3.55784687883509    3.06890573154092    4.73083663519776
H        -0.60306829826923    8.97260942345092    0.76835755782392
H        -1.09010099641949    9.41676599350171    2.41592095259305
H        -2.20485661127347    8.50634525825781    1.38247476507155
H         1.63521619308385    8.20710404906490    1.87342612469737
H         1.88530733011675    6.61123421271202    2.60178975357566
H         1.35463731760299    7.97249858169857    3.60601181975127
H         0.56027486188214    6.77821969368663    0.05753386775020
H        -1.11526204262779    6.18295851331365    0.07462785598723
H         0.17100109370999    5.21171372398948    0.79278157673344
H        -1.35799175917348    1.45234293020332    3.02046972549463
H        -0.54900719550867    2.52114171605200    1.86966903246872
H        -2.30463272096994    2.57828730366837    2.05079632361524
H         1.68117859782797    2.91933776010164    3.80312682233160
H         2.03145817741778    4.64530148286505    3.81123402068054
H         1.30850551423343    3.88931549812309    2.38322599648028
H         1.15282081886644    4.89829922886217    6.76992386947810
H         0.22867171392390    6.39782247673117    6.66890795756771
H         1.47477351897138    6.05356414010105    5.47258476882051
H        -1.92447122899081    4.22044116139786    7.72204102179651
H        -3.34664592939033    4.90722374629646    6.93863751129513
H        -1.95499173485166    5.93418006029133    7.30320019465039
H        -3.43655451890483    2.09822505269563    5.21646108541996
H        -3.96541718217856    2.90312806351243    3.73601995165671
H        -4.28016578174129    3.64985709589211    5.29803383234447

