40
CSD_code = GUSKEK | q = 0 | S = 0 | Stoichiometry = C17H15F5IIrO | MND = 8
Ir       -0.05179185122910    3.40437144658124    8.32425290547299
I         2.07746353210197    4.92477013813126    8.95321780228276
O         1.28486564857518    1.27834687735121    9.97137641949795
C        -1.87596516077057    4.12317556340909    7.16535905790578
C        -1.44658832242045    5.17157511112355    7.99408138825046
C        -1.56940585643368    4.73559816291265    9.37909271746786
C        -2.08799470327441    3.42246498315207    9.38261441955281
C        -2.18577255706566    2.98837483498742    8.01150517346365
C        -2.15183940739108    4.19512300558261    5.69864465635954
F         0.95757460157309    4.78186219141138    5.65060002882301
C        -1.14729397160225    6.57281758536501    7.57639057091929
F         0.60334979097366    0.35202445798703    7.24017246600068
C        -1.42028431287724    5.63902459781232   10.55710128851798
F         1.54423508404276   -0.56120502045183    4.90016265557655
C        -2.56571464247333    2.64866056105902   10.56799340370077
C        -2.85727055353895    1.73701875317982    7.55332493600095
F         2.21950698943765    1.18439284114133    2.90122168290014
C         0.79253998242291    2.61023150178799    6.56557647263410
C         0.94937181393007    1.25231846802894    6.29751296007443
C         1.42608913187211    0.75702494347008    5.08886921059223
F         1.89457547464838    3.87418133509609    3.31217993100655
C         1.76617740400093    1.64013056596960    4.07106089422383
C         1.60708797398839    3.00352099040341    4.28484793239666
C         1.12886217332325    3.45644867992204    5.50995210597479
C         0.78169564584268    2.04982677312127    9.29965155223950
H        -3.21131109562772    4.41042636389837    5.54609319693586
H        -1.92578556118097    3.25370781095030    5.19987045216207
H        -1.57569422028406    4.98650816690669    5.22600129940439
H        -0.71208213383080    6.60298948620338    6.58039138802550
H        -0.45067422617042    7.04810508618286    8.26316319339047
H        -2.07021785994411    7.15585232388535    7.56803568125639
H        -2.29721733876117    6.28463174229710   10.63319497449316
H        -0.54318027939020    6.27622579282828   10.45882630795464
H        -1.32974814869557    5.07325455483651   11.48151915981325
H        -2.03563429258550    2.93707580276474   11.47299558359195
H        -2.43867682128450    1.57845806531628   10.41979422011808
H        -3.62882061558168    2.84425731591802   10.72088039059195
H        -3.93954568791948    1.88122743347041    7.55451827827267
H        -2.62554566831160    0.90120541488015    8.20989718609312
H        -2.55183995808983    1.47289529112302    6.54345605605826

