40
CSD_code = GUSLAH | q = 0 | S = 0 | Stoichiometry = C17H19FIIrO | MND = 8
Ir        9.34423359376018    3.19043864465669   10.73829503797088
I        10.86055113238516    1.47866411937177    9.33695320647370
F        10.17254861210101    4.80272491389371   13.40286658391927
O        11.65758105858364    5.10738255545686   10.70712696936940
C         7.38809669756590    2.14287760281264   10.33692272010492
C         7.56534741110329    3.09699935567742    9.25338265230455
C         7.58202257287404    4.38818712943407    9.80247906250526
C         7.47743306557112    4.25594882044517   11.23841235860074
C         7.24252811690141    2.86307256989102   11.53730776363419
C         7.09484790464115    0.69068955850422   10.12705824664321
C         7.52312246004950    2.73543935036284    7.80642511917096
C         7.57537183110297    5.68399344606462    9.05717061406716
C         7.23024051062305    5.38910884652092   12.17871813033170
C         6.79940480689062    2.32624434150571   12.86056294076676
C        10.04278802363037    2.57055916593246   12.60516136339792
C        10.26034741749740    3.46530840683275   13.64619539773840
C        10.55064527659174    3.07327603057624   14.93955274086127
C        10.62839036270976    1.72285382352403   15.22667265677928
C        10.41607241671031    0.80036716088630   14.21913756595161
C        10.12840180879777    1.22038288285285   12.92902503089379
C        10.76555126801956    4.39173195053153   10.74423451548098
H         6.06567230143286    0.56881578920567    9.78320809552806
H         7.21454716508291    0.12741535246253   11.05041117656492
H         7.75286940037545    0.25854713289848    9.37479594005074
H         6.48845707105898    2.55849367167984    7.50493218591720
H         8.08904439212305    1.82666959422565    7.60769065599948
H         7.92808101054988    3.53246088242072    7.18637719687923
H         6.54495157577127    6.00674228013359    8.89364668602983
H         8.05697728557416    5.58627337659586    8.08625131204229
H         8.08689765165974    6.46433546931224    9.61740153354191
H         6.17526419594199    5.66974850457295   12.14358619959164
H         7.82390040998970    6.26056625658530   11.91136798563496
H         7.47524651687553    5.11458773140472   13.20167518687809
H         5.71207294525156    2.39642163717066   12.93256280618464
H         7.23058419579807    2.89197190721403   13.68421616367474
H         7.08278455896283    1.28286061909341   12.98288785766086
H        10.71028610083565    3.82683025878150   15.69503506861972
H        10.85473056092193    1.39727878369528   16.23016853436211
H        10.47662231012481   -0.25667099275036   14.42942934303161
H         9.98048400355914    0.46740106957021   12.16879539484477

