33
CSD_code = GUSTAP | q = 0 | S = 0 | Stoichiometry = C8H14Cl2N6O2Pd | MND = 4
Pd        5.27276873848434    1.58931098630920    6.95676297707937
Cl        6.97244325538573    2.39518895113605    5.64411988523187
O         4.54028716108416    4.40641787643426    7.77335817108235
N         6.01766903438467    2.77463347661231    8.33871920857260
N         7.71919067686164    3.94561567019797    9.15139555703147
N         7.98274838486128    1.60797653202304    8.72585389771194
C         7.28637176057444    2.74976558550167    8.72093809882978
C         6.69050962404165    4.92984584996590    8.88833452736669
C         5.58244301277332    4.06138469985087    8.27525678222846
C         9.07305390717980    4.29081086921200    9.49207653556600
H         7.02576376410902    5.68720042294737    8.17507157506476
H         6.34941065246586    5.41960086428709    9.80416527250266
H         8.98862633745140    1.63234557152767    8.71834548477997
H         7.53463573783046    0.84709153143103    8.20523122133217
H         9.06392195857481    5.22170424097333   10.05595389648709
H         9.50910971940254    3.51168695552426   10.11692515582573
H         9.68837336122532    4.42562480503411    8.59687467731829
Cl        3.57500095661982    0.78203661711737    8.26888985791589
N         4.52710174554379    0.40692232430666    5.57291315038431
C         3.25862275625068    0.44174288939350    5.19062245318940
N         2.81878989079565   -0.74869763235748    4.75233586094176
C         3.84203164156005   -1.74047959072978    5.00792702128383
C         4.95595688940171   -0.88253387194543    5.62572712976181
O         5.99728371954695   -1.23725385239576    6.12212656585121
H         3.50313522774768   -2.50064837282694    5.71648481012045
H         4.17942436925623   -2.22614863812825    4.08856266999291
C         1.46292600172926   -1.08361074878466    4.40926766828322
H         1.46642486217745   -2.01203324821225    3.84136265634289
H         1.03226594924042   -0.29899405413083    3.78757040853083
H         0.84610262655918   -1.21841761924307    5.30341418374926
N         2.56892600529705    1.58755321820240    5.19295057131856
H         1.56292331621646    1.56908452007233    5.19914934067927
H         3.02115695536665    2.34297317069319    5.71831272764222

