48
CSD_code = GUSTET | q = 0 | S = 0 | Stoichiometry = C12H25N7NiS3 | MND = 6
Ni       10.97160787255194    2.18519585712874   22.21285576790603
S        11.93015644250436    0.35094702991675   23.21792370104354
S        14.69893972834472    2.54537112768890   27.13924870181007
S        12.01150641996473    5.50252772617059   23.83425116793954
N         9.11773794387409    2.06499070379264   23.71868624675166
H         8.80912677041299    1.10813253760299   23.88215437631663
H         9.61277806285714    2.35172327957335   24.56437081879467
C         7.96510649377379    2.94730903846912   23.54882441299130
C         8.42021664711682    4.34936350896920   23.14993779713152
C         8.94067679559988    4.45691242559721   21.71630777528439
N        10.34871212671733    4.07986711538299   21.55564015234580
C        10.80905167928345    4.44481134368737   20.20970236258919
C        12.30234414350109    4.76285325948457   20.09971618770098
H        12.50216862467229    5.68785513845052   20.64226816008780
H        12.50645283223933    4.95380077825035   19.04403113985255
C        13.26946509951768    3.69256644232102   20.63432054432262
N        12.70988332734043    2.34308322270462   20.60990397443469
H        13.31783706144279    1.74417849377649   21.17479386939507
C        12.65924242050286    1.74824316267336   19.27847078651613
H        13.66774704710039    1.49043829959362   18.91762477893664
H        12.23852871992899    2.47514655715500   18.58044368131731
C        11.79204025654804    0.48923200775867   19.28956776972802
C        10.30414663578136    0.79067585670827   19.47777474152542
H        10.02671481532924    1.64994528804930   18.86149396389808
H         9.72300026896401   -0.07304067114068   19.12401187786996
N         9.95854393995137    1.07559698623817   20.87495432664511
N        12.06380579220411    2.84215455845549   23.65047735277362
C        12.52253891561455    1.65766298707208   24.13556768900268
N        13.30931998495980    1.48481999980811   25.16184995732859
C        13.71678035061986    2.57350840298934   25.82060977294430
N        13.27699812069233    3.80795504573241   25.35959545362650
C        12.45334372047655    3.95854602458591   24.27810834725642
H         7.36719451188690    3.01748769863367   24.47001960213256
H         7.32055198994247    2.53438256493711   22.76631772093398
H         7.57094317319881    5.02593861068690   23.25463546363417
H         9.20101129522041    4.68633049769727   23.83397285539958
H         8.82076029124120    5.50475360494464   21.40015609818187
H         8.32704088819439    3.84231003143230   21.04766387135373
H        10.88336101666236    4.66569710971535   22.22754395488480
H        10.54064294847866    3.64331994563714   19.51942662154942
H        10.27794500269122    5.35124707060721   19.87959604348878
H        13.50393702200739    3.92614435185083   21.67464433720515
H        14.20843387963013    3.74915182162389   20.06074391410635
H        12.12466746102757   -0.16790196459614   20.09564023267992
H        11.92335362278038   -0.03602256431842   18.34266946531308
H         8.98736885602482    1.38196925768237   20.92163947979139
H        10.02485534459861    0.19906852936418   21.39909758306121
H        13.58761363602526    4.63704989945790   25.85334510021987

