64
CSD_code = GUTCOP | q = 0 | S = 0 | Stoichiometry = C31H24AuF5N2O | MND = 2
Au       -0.36244441004851   -4.17680152729655    7.40655385040869
C        -0.06788217515948   -0.23714269117140    9.35866282352424
C        -1.02157280947185    0.20586062993896   10.27869982832439
H        -1.85391766370715   -0.43103224648540   10.53480733789233
C        -0.88681357734013    1.45020070394712   10.84375877101645
H        -1.60886662467975    1.81739512022497   11.55486980047026
C         0.19336327539510    2.27931985977612   10.50940002693900
C         1.14306113699233    1.82227263553506    9.59307102088014
H         1.98771919433569    2.43298674943121    9.31921679990096
C         1.01280751004335    0.57338662859825    9.02130062137388
H         1.74439330363019    0.21917297497834    8.31129139062775
C         1.26444658965222    4.38931047810707   10.81577422204692
H         1.27922138073394    4.60021384676603    9.73812163967718
H         2.23328933783913    3.96010566433077   11.10497728669128
C         1.00547890222970    5.67480101444045   11.59323426355476
H         0.97219153710177    5.44173203317784   12.65841700473863
H         0.02762177919588    6.06459601786880   11.30658322686914
C         2.08605957128829    6.71649412178310   11.31691345954100
H         3.05336995000068    6.31103790119336   11.61893323404206
H         2.12766005537251    6.91611893478520   10.24348624814267
C         1.81274945776388    8.02468832606887   12.05717847920587
H         1.81962872655683    7.84347816725487   13.13408229943715
H         0.81407075257374    8.37425090593060   11.78775380596386
C         2.82180511850064    9.12048919735942   11.71751880215936
H         2.92668563386754    9.19931017382752   10.63304053740166
H         2.45232119805935   10.08077661846607   12.08332630237841
C         4.20554934076074    8.87293716943496   12.33111003211644
H         4.13414902273603    8.87382724206065   13.42258128615759
H         4.59303677238007    7.90076983866998   12.01772064072964
C         5.92013513301980    9.83701258963096   10.79176579972316
C         6.04199227136872    8.83505525629028    9.83884770808185
H         5.47374470537561    7.91880613750609    9.90542401658047
C         6.91537141605488    9.04301211239013    8.78872417668872
H         7.02686268819109    8.27745175131540    8.03463729972495
C         7.65345669088666   10.21919925584552    8.67840397599432
H         8.32514089145788   10.34341171592011    7.84210642323580
C         7.53404853482002   11.22269109663133    9.61886535755919
H         8.10428923942808   12.13519644215885    9.53166515280193
C         6.66242373214951   11.03741829497601   10.68365767001101
C         6.28798651494326   11.84644739889572   11.80846879697003
C         6.65991644391491   13.11160784061757   12.24331364997802
H         7.38483126344532   13.68877029277933   11.68931573221972
C         6.08324848366454   13.61220782635529   13.39319532147864
H         6.35728595186684   14.59457054878236   13.74797031082022
C         5.14614280885427   12.86839864883159   14.10687133897632
H         4.70922720434638   13.28861793009452   15.00093985327095
C         4.76068100354386   11.60720504451296   13.69523294515472
H         4.02990429316646   11.04601295107366   14.25851245400751
C         5.33833682955177   11.09540269574412   12.54166172381997
C        -0.28385285571679   -2.50292400005733    8.28808061983839
C        -0.40851644208533   -5.94672421204558    6.44756974761847
C        -1.09100324755618   -7.05438396576203    6.93717469106769
C        -1.13520088718214   -8.28649559064253    6.29661935095089
C        -0.46506119113352   -8.44872205771188    5.09092112768070
C         0.23265884252161   -7.37366362787927    4.55563952002455
C         0.24348796129364   -6.16428377246349    5.23924969601184
F        -1.75574028931345   -6.93802504363761    8.10757727453893
F        -1.81417945957736   -9.31564986266391    6.82776657407569
F        -0.49101009977215   -9.62707100812406    4.45265596475317
F         0.88583329885578   -7.51336407521671    3.39099310768168
F         0.93453649511804   -5.14333030580178    4.68550551292314
N        -0.19166408637271   -1.45827191285127    8.78830948562415
N         5.14604671786900    9.88012560416558   11.92743623634998
O         0.22155685639220    3.47843151133584   11.11733634154380

