67
CSD_code = GUTCEE | q = 0 | S = 0 | Stoichiometry = C24H32Cl4N2O4Ti | MND = 6
C         1.16299502169129    3.51487368998060   10.23820694536079
C         0.11576417027353    2.63482829369500   10.59552224400905
C         0.31799805689440    1.65539863995115   11.55426767040943
H        -0.48918668732327    0.99016726106550   11.82228687425136
C         1.54585340913256    1.52311976855262   12.18227193268580
C         2.60018910529933    2.36298982065904   11.86056141887811
H         3.55847546002950    2.26293780067822   12.34375603926107
C         2.39886264132138    3.33131476949064   10.89927126609480
C        -1.23773298137033    2.80816673454067    9.96091471902651
H        -1.83833387401471    1.90231462863097   10.15825726913968
H        -1.73204246149675    3.66715021171189   10.43406860753303
C        -1.54925284079556    5.35277512905081    5.66078637568934
C        -2.80168556548345    5.68837872347269    5.09814386420991
C        -3.07120677647165    5.58184207154560    3.74963684127869
H        -4.03950151488637    5.85432514740474    3.36242535520761
C        -2.07243881174781    5.11229643134272    2.91139384902858
C        -0.83083507017623    4.76055899772343    3.41610054262989
H        -0.06769320089614    4.39847222766501    2.74350700491033
C        -0.56000012519256    4.87712060845887    4.76952013177906
C         0.80509609036511    4.54637178176416    5.30874410760363
H         1.36672060338032    3.99212887333017    4.53594967890318
H         1.33041726847346    5.48760096827412    5.51951297723831
C        -0.46782694738512    2.04820567848851    7.79604740787477
H        -1.09126158334765    1.14945360766908    7.64827625295332
H         0.39649190355965    1.75626984605104    8.39995490101957
C         0.00936904986395    2.55421202905311    6.43152127890074
H         0.60002418691819    1.76149066742764    5.94105004087764
H        -0.85638225077688    2.76266580284680    5.79588722499257
C         2.17795308857850    3.46309559973797    6.89819743460625
H         2.22971898371236    2.85664671294106    7.80020216006454
H         2.73237711032720    4.38436778720737    7.07385578567379
H         2.66006184989307    2.90730379775052    6.07700591377244
C        -2.59138430018707    3.13091100123787    8.05303352098146
H        -2.63528307952501    3.27774739654341    6.97575960080712
H        -3.10897268714445    3.96145197356329    8.53198195934691
H        -3.11841647128560    2.19376837416252    8.29687757800302
C        -2.20708364904677    6.72571194369723    9.50701296455991
H        -3.03940192295877    6.26603558227325    8.93316466060838
C        -2.70007941604884    7.01179697082132   10.93390228828893
H        -3.02397651559865    6.08962082593731   11.41254314974132
H        -3.53101393445676    7.71191111069803   10.91557709704527
H        -1.88539830750799    7.43454836699161   11.51853962632839
C        -1.81735127449411    8.03375551704340    8.80126011964155
H        -1.20090438700350    8.64254188034576    9.46014118626146
H        -2.70839139668635    8.59656777944434    8.53021086575866
H        -1.24853250067895    7.78677724216179    7.90023647812002
C         2.02106650467849    7.05365579538991    8.31306401514675
H         2.79883459845528    6.27083644026170    8.43624286000174
C         2.59971107369776    8.18246510594133    7.44619604792220
H         2.90448553765366    7.79409989983697    6.47614179123764
H         3.46058249676593    8.63212409304402    7.93382625863314
H         1.83710703293925    8.94265673583522    7.28816566315617
C         1.66176914854474    7.58060487401796    9.71081246737133
H         1.10089493957599    8.50966899392377    9.62504573099698
H         2.56510980474538    7.76423480835213   10.28912553396024
H         1.04578302787625    6.83145100215936   10.21659692855015
Cl        3.68399216237439    4.39095914220079   10.45282368552232
Cl        1.76935901426742    0.29205199956642   13.37485135537418
Cl       -4.01612887645815    6.25232144879345    6.18484877424721
Cl       -2.38366108751013    4.95661911317727    1.21820340240381
N        -1.20718012705627    3.08551179116538    8.51678817365412
O         1.03504354291244    4.42370787624809    9.32270803386298
O        -1.35325751508986    5.44723518567729    6.93831406875384
O        -1.14814351562194    5.82924860127873    9.54765838180148
O         0.92150120935459    6.49130764353866    7.67891190292169
N         0.79224131167749    3.78350231173551    6.56666182219193
Ti       -0.14840774950774    5.22774706477344    8.24516789093536

