70
CSD_code = GUTCUU | q = 1 | S = 0 | Stoichiometry = C26H33BClN8Ru(1+) | MND = 9
Ru        3.17805492177438    3.13399735358586    2.36632519057407
C        12.30914931969549    4.01649896718025    4.81273682423849
H        11.82258135001849    3.99140111543299    5.79009901183709
H        13.36390874248867    4.22431433722688    4.96509182812053
H        12.22075236377299    3.03302055178830    4.34672483301582
C        12.57532672820805    6.11710088225288    3.50397159556324
H        12.65212185317663    6.10986162188985    2.41458506359793
H        13.57375478064952    5.99999837205124    3.91434034086619
H        12.18757541758420    7.08546671890848    3.82636541152607
N        11.72886094817088    5.04095861920853    3.97144446862376
C        10.44190490104631    4.99027049613293    3.62922022175920
C         9.83621014575042    5.96033333558602    2.78721638126282
H        10.40796715664029    6.77566269061146    2.38113686521389
C         8.51330468013712    5.87262776190791    2.46613582149845
H         8.05348423357992    6.60166248182098    1.81715864963255
N         7.71463986239849    4.89332039480856    2.92169999424997
C         8.26335888509674    3.94514087852850    3.70756721021069
H         7.60218176316681    3.15823499868265    4.03689534781305
C         9.57494294173093    3.95605272028444    4.07490281981317
H         9.93555177961681    3.16331902670219    4.70552826947764
B         6.21352756311966    4.73710243030122    2.52470892996117
N         4.95574572202978    2.81831814835482    1.49796640318725
N         6.10365048388546    3.47055955850480    1.68252174957300
C         7.06092846651081    2.91103425038657    0.91337716599348
H         8.06084516782972    3.29349238178826    0.88577927405851
C         6.50776443422313    1.85046681175732    0.23781376563919
H         6.99025134951045    1.18554187455584   -0.44694655446068
C         5.17414470468564    1.83024240752323    0.64584619315135
H         4.40068273415588    1.13201228050577    0.38444262177162
N         4.18488520154626    4.04729497284167    3.85440884585957
N         5.40382254022491    4.59759226100343    3.82499908601523
C         5.70124744765178    5.08083187561602    5.05043248040341
H         6.62609952642489    5.58349196570480    5.24931091630750
C         4.64948867496602    4.80716855936817    5.89226726096637
H         4.56364115120249    5.04361234868645    6.93161182642884
C         3.71845241697835    4.14690634792297    5.09034801272893
H         2.76699717007910    3.72927049552168    5.36320577968621
N         5.68378206501168    5.90017893993920    1.72323565761291
N         5.13993853612875    5.69892138909369    0.51310927517360
C         4.74037572895395    6.87482410938160    0.07812050915454
H         4.28342715900870    6.97188111315666   -0.88728013179152
C         5.01228867369135    7.87986387383142    1.01991352167597
H         4.80017651224122    8.92573804874406    0.94294358005434
C         5.60855241108616    7.21349878185085    2.05973498195894
H         5.97239253062426    7.56814236240682    3.00414308744872
C         0.27693759681197    6.89640688863015    1.59835071457165
H        -0.07732039153922    6.54973591700343    0.63035013852790
H         0.25311473855808    7.98276154402038    1.60521211746843
H        -0.40315962073761    6.53259497678392    2.36516797821484
C         2.22247861709911    6.93224631573343    3.19846144204672
H         1.56172865934898    6.66255598277045    4.01826677179803
H         2.28698233661175    8.01662520653294    3.16209770258805
H         3.21569340133221    6.53847846499102    3.40408256128838
C         1.70579696586084    6.40488555813700    1.86031429634461
H         2.35579537560931    6.79348220866967    1.06923200848146
C         1.71494692835701    4.89843295357502    1.77225007700032
C         1.13761522314013    4.09606502852013    2.80199749096160
H         0.73474731433893    4.57830490895625    3.68581350325937
C         0.96228115505723    2.72045327871145    2.63638455343270
H         0.44816602249770    2.14154459346707    3.39693040940473
C         1.36409986221692    2.07134572360545    1.42963898377131
C         1.97063063505648    2.85250768526107    0.43713127877265
H         2.22971975311766    2.40460350607773   -0.51672848925451
C         2.14561072135758    4.25291668414714    0.60583074170227
H         2.54957350084789    4.83633843417027   -0.21229562613195
C         1.10097060918846    0.60967897120970    1.24812733920133
H         0.04938114942008    0.39026899882734    1.42882060010873
H         1.68855941350337    0.03857113950206    1.96977835899330
H         1.36329902979638    0.28129803982531    0.24509702366392
Cl        3.72940985666047    1.18286607753322    3.55062763632947

