62
CSD_code = GUTDUV | q = 0 | S = 0 | Stoichiometry = C25H27ClN3O3PSZn | MND = 5
C         3.90924786279433    2.64451003202601   11.67886562329560
C         3.60379806595993    4.02800239100206   11.27041114288828
C         2.20533114084298   -2.12647636772818   15.13619268050686
C         3.72103053538660    5.09057942559777   12.16176918935792
H         4.03679719156198    4.89252039851969   13.17429247651735
C         2.34237470331609   -1.05824881269200   16.08108360871982
C         3.44154219788919    6.37940759262583   11.74842017060674
H         3.54078473598334    7.19900375297121   12.44493439050963
C         3.03421010928617    6.62237944715605   10.44670616341922
H         2.81234346206696    7.63025426731667   10.12742150838590
C         2.88116077519904    1.12905317608420   16.46759354830103
H         3.19479170547947    2.07199057974903   16.04270263818886
C         2.90936888546398    5.56850763810336    9.55602615095485
H         2.58597915671835    5.75274219278584    8.54180673094562
C         2.65273386293249    0.99353831648121   17.84105761877763
H         2.79703075729985    1.84071020310217   18.49252588387060
C         3.19670533390106    4.27943673305365    9.96187868599169
H         3.09236771367396    3.44979669996710    9.27998445157045
C         2.25299335561350   -0.22415188553849   18.33446369809649
H         2.07194985595653   -0.36994181865131   19.38983616984091
C         5.47787387681477    0.07635046141922    8.32950276594300
H         6.46781632200330    0.34707991418870    8.71317615562358
C         2.08187205847713   -1.29976649329586   17.44685444658498
C         5.59740187741423   -1.12576186683262    7.40134849486881
H         4.61251304960054   -1.41183379704061    7.04121221847043
H         6.02815662737191   -1.96622841896094    7.93855584050815
H         6.23187688498432   -0.88009148561235    6.55404961168280
C         1.67304544316107   -2.59945728159461   17.86216463120503
H         1.48047798226756   -2.76093434438446   18.91272441891835
C         4.85626274274404    1.27878369247454    7.63438426741926
H         5.46728211561661    1.57564469178724    6.78564470458036
H         4.78794587176795    2.10476823090367    8.33635602152290
H         3.85710360857337    1.02749412747797    7.28626615648510
C         1.53590669083917   -3.60771060348167   16.96789474458518
H         1.23019791283516   -4.59347126074761   17.28675461450288
C         7.07108447744850    1.01850220545963   12.05703049270464
H         6.38474425532571    1.35821338520120   12.84351881597810
C         1.80105656427604   -3.40267717495573   15.58341015616524
C         8.16520743848013    0.16747519424155   12.68266124689374
H         7.71605339232356   -0.63955244622511   13.25548427443998
H         8.76832705818746    0.77725726571361   13.34938883658384
H         8.79679898056550   -0.25294113028069   11.90386694479391
C         1.69516897788030   -4.41898832727248   14.61904515759091
H         1.39365991021705   -5.41167098354106   14.92185994983989
C         7.62628316232291    2.22512718339386   11.31077887965679
H         8.32137716876498    1.89542059341073   10.54147238103928
H         8.14641902709404    2.88048412799474   12.00422103519320
H         6.81682301846692    2.77883467180519   10.83951333182872
C         1.98627365030353   -4.13074603886208   13.30808117093656
H         1.92066095055198   -4.88749574399866   12.54235578989016
C         2.38519635897064   -2.83372882960891   12.96733022289023
H         2.64061087612434   -2.56870985963268   11.95198221137795
N         4.38766789433542    1.87458100068842   10.76306682130148
N         2.48649390511295   -1.86941185347068   13.85191032905652
N         2.73127664755615    0.13766191264716   15.62139430695138
O         3.96362128843864   -0.58038727052336   11.75156823349437
O         4.66116572849329   -0.33127861639088    9.43064286433417
O         6.36183639301581    0.18429887819800   11.13074829228404
P         4.79684435022466    0.28622078053445   10.86852075716633
S         3.59990686693424    2.28177326466858   13.31969288660616
Zn        3.75231924475452   -0.12651690943571   13.65555895384866
Cl        5.47904794201702   -1.01472480801273   14.69253403352687

