67
CSD_code = GUTJOV | q = 1 | S = 0 | Stoichiometry = C24H30CoN4O8(1+) | MND = 6
Co        4.06247802708461    4.46472580250990    3.56221240912796
O         3.66033873098699    5.11324429227464    1.84947020130503
O         4.59130311505058    4.56985115956672   -0.47736131294127
H         4.53455187514550    4.90401276866067    0.44761242016688
O         3.14933402970066    3.80891825090292   -1.98153827938219
O         6.67521207664115    3.41577773329110    6.83798342740664
H         7.32477680612434    3.33443883557394    7.54307383506956
O         3.06786686767029    2.91149943844468    3.22441737635916
O         0.54869452752188    2.43113993721657    3.21964075309554
H         1.45487287279981    2.64360290651576    3.54234805712979
O        -0.32846108170190    1.70015511246526    1.31781716103948
O         5.20337214063943    7.95230982607229    5.82756941172184
H         5.46124628293865    8.62400127523863    6.46637784779501
N         2.51416338377076    5.26757637043807    4.24804766561449
N         4.36280609913726    3.80050408152193    5.47450621761995
N         5.59869164132662    3.65420100145552    2.85811318731878
N         5.26003973617415    6.09942614237295    3.84755092318791
C         3.35048053690569    4.32810025541186   -0.91814751790346
C         2.23399649922758    4.72119128846163   -0.00066696117407
C         0.94540616429930    4.69578091687443   -0.51492356209404
H         0.83152063878319    4.41546379781626   -1.55151595428716
C        -0.15844110520149    5.00342108405171    0.26857047988571
H        -1.14782855979950    4.97761380856229   -0.15654907154711
C         0.02090361765450    5.30490038678562    1.59847450718278
H        -0.83113886578176    5.50535981586240    2.22997488397262
C         1.30187574281966    5.30639236255833    2.17194908387262
C         2.44547126867221    5.04541671020241    1.36269980904101
C         1.43784473130091    5.49062307226872    3.57962872796768
H         0.54377274481377    5.81829028461684    4.11002524624459
C         2.54056852732150    5.39235565345636    5.68746302994021
H         1.54053573604735    5.56583878252664    6.09758276388598
H         3.18679452093300    6.23271935438704    5.96837359078790
C         3.12538976238020    4.08364872296321    6.21882665952114
H         3.30087116416552    4.15068035423816    7.29649258559976
H         2.41737693568139    3.27497532002083    6.02239185031078
C         4.85653084475041    2.43098453963027    5.69322628237929
H         5.47659524780310    2.14155431158869    4.84379069332055
H         4.02192826916237    1.73420970732047    5.75892021761203
C         5.71655760615727    2.37598960862583    6.95842131421642
H         5.10460492189305    2.52847468317266    7.85697395023488
H         6.20021097888127    1.39710659767644    7.02898756545534
C         0.64486159751598    1.93637820430129    1.97935396646335
C         2.03233562313130    1.71751017192174    1.45985819755662
C         2.16708660294559    1.00002190188314    0.27972246393552
H         1.26356500821357    0.62503503521558   -0.17761009628411
C         3.40800274873899    0.78087718218886   -0.30256863902311
H         3.48433488119616    0.21875777893109   -1.21827318020374
C         4.53154315820646    1.31882363887492    0.28057015320411
H         5.49794528289794    1.19247765515319   -0.18316619764947
C         4.44010876528267    2.08370434260731    1.45376183838134
C         3.17741251568617    2.26728116469162    2.08843374898533
C         5.60389019554769    2.73904822099333    1.95395799527781
H         6.55179738610132    2.44647380289365    1.50239076852328
C         6.81468448382679    4.33427525566599    3.24165354912207
H         7.65468142783455    4.05719354523227    2.59667383219484
H         7.06594013699446    4.07541839402862    4.27728766555531
C         6.51875259971208    5.83033781115226    3.13449106596401
H         7.35092981408763    6.41660991059873    3.53506472093973
H         6.37551833256412    6.08726528017729    2.08221283710079
C         4.72486073477414    7.44243333893572    3.56940738235157
H         3.64788849207239    7.43406813385451    3.74217010371219
H         4.90072885532287    7.71153155155942    2.52871537417242
C         5.35646600419195    8.46803646071610    4.51405232828049
H         6.42082702610736    8.60995930316706    4.28562894155157
H         4.84573326656434    9.42929859466448    4.40359643299231
H         5.10140694859180    4.38613478132868    5.87628970620716
H         5.47688305200722    6.13247218565273    4.84841356462855

