83
CSD_code = GUTJUC | q = 0 | S = 0 | Stoichiometry = C41H31F7NiP2S | MND = 4
Ni        2.82839058764470    4.23649513215437   12.26102552279251
S         3.75820996288473    5.11862577361859   10.42738807385837
P         3.62415513584646    1.53021839380710   10.89418303886306
P         3.38163063753468    6.03998454994845   13.28428731499388
F         1.56493011888453    2.87120539152805   10.02422811186994
F         1.81517345772351    0.75040894552288   12.65979554400614
F         0.15628129207166    1.35025422326994   11.41180692864982
F        -0.01991982790995    2.10223016822994   14.17505426865599
F        -0.16655115400786    3.66492401457969   12.67741198579219
F         2.66425208557620    2.63089977516329   14.51115450589427
F         1.43535627863425    4.39972784028154   14.76109699710223
C         2.19765698946252    2.62872873396826   11.24914654929989
C         1.19825141595957    1.84941461476594   12.11849468597863
C         0.69570239237426    2.77315687975317   13.23881335376708
C         1.90828404412398    3.53887008141657   13.78937252773174
C         4.64254213297505    2.25815767039629    9.58940176273720
C         5.99886719279176    2.50023649860709    9.77535206016757
H         6.46417058697941    2.29552647503605   10.72925385831754
C         6.74527371795515    3.02561835083334    8.73682624058332
H         7.79512264840957    3.23151249419649    8.88428033173256
C         6.14899770011194    3.29417312452509    7.51596218735437
H         6.73423625095270    3.71681999851215    6.71287109711842
C         4.80508705976762    3.01867026991076    7.32198605384768
H         4.34258366291430    3.22104136541236    6.36787037572909
C         4.04989839905819    2.49014575438675    8.35106254219291
H         2.99996475144738    2.28416110463109    8.20549845324625
C         3.31126484120643   -0.12962038689597   10.23493585271692
C         4.40015896290247   -0.99550510654685   10.14989169878567
H         5.36730941933796   -0.67687493582046   10.51494495773706
C         4.23497560356259   -2.25034673776454    9.59742795120427
H         5.07442823996221   -2.92711356825247    9.53936287567392
C         2.99344096175797   -2.63772656339467    9.11475756801506
H         2.86675848749404   -3.62056876856461    8.68625199632689
C         1.92095934407075   -1.76457702501960    9.17150437168066
H         0.95877110374648   -2.06129784166951    8.78264129097124
C         2.07479436927947   -0.50467693459930    9.72617573270380
H         1.23582871890271    0.17286443265364    9.75609535529881
C         4.57116323719394    1.46166418449568   12.42731271784986
C         4.70689609990771    0.28979334518619   13.16089442963685
H         4.27176127681582   -0.62955400709360   12.79744743504307
C         5.36944838923342    0.31893632284750   14.37498983832911
H         5.46564621005355   -0.58816455193804   14.95220764887118
C         5.88680638428498    1.50890655577799   14.85807305689821
H         6.38901753033550    1.52917763191216   15.81343981817750
C         5.74968136894488    2.67899244055595   14.12822380303781
H         6.14217791964179    3.60597463381474   14.51659407393957
C         5.09036378102008    2.66452316683559   12.91180802733962
H         4.99142618571275    3.58519286540725   12.32159564705228
C         4.48237200913070    7.03109281763383   12.23451121641596
C         4.57350426825804    6.57590485455346   10.91637754642239
C         5.32759574854022    7.31162837393874   10.00370041358881
H         5.40427842018345    6.96252182300443    8.98529778828589
C         5.96105685956840    8.46667974280022   10.40930061783293
H         6.54663971908536    9.02861671209483    9.69526215846018
C         5.86576238393948    8.93122373946787   11.72137352499374
C         5.11296140145112    8.20196009019213   12.62829723602385
H         5.02169397685098    8.53785145008048   13.65245905591651
C         6.55194129761632   10.20095058973559   12.12779834581613
H         7.58309900923874   10.20932399585777   11.77856837993746
H         6.54663356053063   10.31620020166953   13.20882517978792
H         6.04484884723068   11.06023464431399   11.68856119014634
C         4.10029579958506    6.19379139768503   14.93955939465680
C         5.48675307417877    6.11773416045040   15.06098809955740
H         6.09226799786624    6.02236817754366   14.16847081428259
C         6.08116015917833    6.18645402928816   16.30667422128193
H         7.15698486179781    6.13313575913150   16.39524169840172
C         5.29643178734619    6.32324226425887   17.44087105181285
H         5.76055838646250    6.37572703896366   18.41476626178891
C         3.91773736178580    6.38976618343040   17.32474659774119
H         3.30628079970038    6.49210220197583   18.20907377591431
C         3.31595712724506    6.32078824952454   16.08069637904300
H         2.24107960404112    6.35845156362130   15.99282223802919
C         1.87869453437653    7.05380846760213   13.24416201618724
C         1.71742120179442    8.23750014854938   13.95424552323853
H         2.49206209072275    8.57740194403883   14.62714033971016
C         0.55453241460842    8.96968898456229   13.79760932609285
H         0.41934596920033    9.88623318536017   14.35364626834819
C        -0.43656964482219    8.53289917713171   12.93231938720945
H        -1.34370520064173    9.10876911119244   12.82186623160474
C        -0.26817919439717    7.36309056231915   12.20862909889698
H        -1.03851630821607    7.02384881495996   11.53304200370638
C         0.89023104485158    6.62601358362389   12.36135030427271
H         1.04266267616545    5.69918918292790   11.79264579485922

