74
CSD_code = GUTKIR | q = 0 | S = 0 | Stoichiometry = C31H26F10NiO3P2S | MND = 4
P         6.90273045013100    3.42637810614666   14.62037120828688
Ni        6.59505732440413    3.61389313864691   11.39311689574830
S         8.12595329035685    5.61591753322416   11.80093853405714
P         7.49404636345202    2.73715834760823    9.52436538486242
F         5.71964903790820    5.34425480379035   13.40653796107897
F         4.46087477127061    2.08501783279177   13.66520780624083
F         3.63012048593606    3.98260275062516   14.27973942258491
F         2.62906919513337    2.90644432488741   11.76592134648994
F         3.56036423509301    4.85380901554170   11.66155332945929
F         4.83674163199522    1.65424737493489   10.98761100855823
F         4.51376342016519    3.34226921617786    9.67355905108850
F         9.39601905192154    5.55667195737184    9.38870393781363
F         9.78931285082038    7.31783219143339   10.56065983793555
F        10.69700939463328    5.43522677453829   11.09979979607071
O         8.35986931269515    4.20259750820270   12.13913511115744
O         6.95429298101354    5.82263854054694   10.99197405987047
O         8.39781487178172    6.50901740105234   12.88374400792064
C         9.28186684021522    2.33414153714703    9.69736653142254
H         9.44900242612649    1.84254651879430   10.65381837394615
H         9.61094324977847    1.69144972040921    8.88284211600911
H         9.85797067215668    3.25324517658696    9.68632038596002
C         7.43734470768294    3.79241630670954    8.03808893460459
C         9.57173283896732    6.00657654980346   10.64027865909865
C         8.12975686061547    3.42159047107467    6.88887998287252
H         8.70787631704616    2.50892531022876    6.87381723698748
C         8.06911116458793    4.21608535072993    5.75993936956740
H         8.61091361651432    3.92822445415432    4.87069574654393
C         7.31383636294752    5.37837953359887    5.76668316283730
H         7.27113766766528    5.99726892375726    4.88247453651953
C         6.61482678782741    5.74273921675816    6.90447841005040
H         6.02308864323905    6.64556060642070    6.91087281925327
C         6.67262152372619    4.95253129574917    8.03994025816093
H         6.13923201986902    5.24058144872255    8.93576624782144
C         6.84143058930488    1.18781852167234    8.80360621103067
C         5.77895551784495    1.24109035584213    7.90622906255544
H         5.34998952365822    2.19542369997087    7.64178994456637
C         5.27316627260526    0.07909540442299    7.35396089039267
H         4.44921748399368    0.13236521096297    6.65829399617261
C         5.81738163140103   -1.14907444697293    7.69108850218878
H         5.41983588238986   -2.05596895972551    7.26034983851592
C         6.87353735462628   -1.20924850245008    8.58391043016895
H         7.30334484690502   -2.16471479203246    8.84864615688609
C         7.38116533944606   -0.04841070841964    9.13929048544728
H         8.20748500681888   -0.10247464723017    9.83065436756481
C         7.72328566243512    4.87495361950781   15.31114597422368
H         6.96342574001809    5.52340003445980   15.74900474534070
H         8.42544429230309    4.56179316971651   16.08195615467413
H         8.22528612088177    5.43139759610476   14.51464775697087
C         5.99361525687282    2.65385705910145   15.98857833641919
C         5.14225790264729    3.44316381056143   16.75605987184870
H         5.01733103002648    4.49182854558339   16.52737496674242
C         4.43137001034317    2.87606063635594   17.79704498658349
H         3.76530555720373    3.48749523440655   18.38630599509300
C         4.56781985402351    1.52561118121939   18.07620538060013
H         4.00889968150669    1.08433330013068   18.88738436470258
C         5.41329628947427    0.73981685037254   17.31038420944495
H         5.51479459942801   -0.31343836800446   17.52367670617983
C         6.12521431081298    1.29799986596655   16.26394965773457
H         6.77787292602489    0.68583812705204   15.65935645538733
C         8.06027798803390    2.19197424923945   13.99277125963715
C         7.58764025197610    1.23628686693413   13.09428022350215
H         6.55384273472126    1.24720426600776   12.76604373594631
C         8.43945122510918    0.23471559723456   12.65929773287828
H         8.06031890138561   -0.53004887521477   11.99921699796256
C         9.76063487986323    0.20823003696024   13.07893124682549
H        10.42416460870481   -0.56798413201128   12.72728358125992
C        10.23258396225829    1.17738554182966   13.94906846312087
H        11.26399821767953    1.16285828816865   14.26740716501520
C         9.38136481235235    2.16219724855934   14.41960928770931
H         9.75024836935937    2.91132062351353   15.10343016645900
C         5.82080929597085    3.95949631387199   13.23230858431305
C         4.40149399187730    3.40601302416598   13.32739583495323
C         3.81112884503188    3.55256431388577   11.91172200665753
C         4.90266286493548    3.03513560015405   10.94633679541552

