75
CSD_code = GUTKUD | q = 0 | S = 0 | Stoichiometry = C38H32NiP2S2 | MND = 4
Ni        8.73443503585806    8.69079432414392   13.23781360369374
S         8.61255153940139    9.63957431659194   11.22704298422615
S         8.86395965323326    7.74505350837922   15.25245398686183
P         6.87861718912259    9.62441317707952   13.70023979861668
P        10.58118050150670    7.73820285511109   12.77772075799116
C         7.00819884628879   10.31059796302577   11.10179808030851
C         6.57445072446187   10.88431723203557    9.90770127250049
H         7.24376701693272   10.90663712334557    9.06125111228739
C         5.30260278983994   11.40817560584160    9.81814903681639
H         4.97406493296048   11.84301642630332    8.88458903635182
C         4.42390801417932   11.38813373643936   10.90155495844972
C         4.85682143481264   10.82858798041073   12.09309555300026
H         4.19761563218118   10.79855756258392   12.95058496909089
C         6.13171592808848   10.29114107874088   12.19217397333389
C         3.04869241460720   11.97131635306959   10.77072749070002
H         2.52707964592920   11.53356443439244    9.92053816803108
H         3.10803519029596   13.04713052150888   10.60585050628431
H         2.46301788878231   11.79177989886026   11.66904028100643
C         7.38631757526920   11.14479359692116   14.56048156222980
C         8.75416515014495   11.39626765777361   14.62590762253811
H         9.45473039480163   10.65536557195687   14.21205247075327
C         9.21849087679491   12.55956499449573   15.21036330943245
H        10.27927459738981   12.75574456083352   15.26264434851964
C         8.31563585030788   13.47354489392772   15.72965619056446
H         8.67418815764653   14.38286487453124   16.18965326084802
C         6.95261975390784   13.22745626700477   15.66158455000268
H         6.25470555432139   13.94516935131547   16.06793844201580
C         6.48233576799934   12.06726189188007   15.07470051449187
H         5.42081812830573   11.87100678602790   15.01934903917427
C         5.52632413573326    8.94662927083693   14.68871780210363
C         5.54420290387542    9.05104167026188   16.07595052160544
H         6.35110324149180    9.58190422712905   16.56094534127888
C         4.53594904342966    8.46888182105171   16.82145650300138
H         4.54599877367972    8.55456886691454   17.89828378134115
C         3.51755743073709    7.77125056777634   16.19170451078663
H         2.73033641666429    7.31961534260230   16.77759612770201
C         3.51320291567667    7.64171796373741   14.81179162800536
H         2.72619217952011    7.08596905046121   14.32272281100097
C         4.51952697902836    8.21875482758389   14.06026239801947
H         4.53097690270678    8.11357889836288   12.98307695511255
C        10.47835733361612    7.10102841451244   15.38606864875162
C        10.92526377090052    6.55631430642874   16.58869473039800
H        10.25844788745416    6.53591122916000   17.43717935381059
C        12.20770274500037    6.05976269881354   16.68442827230703
H        12.54694238614412    5.64874797786584   17.62493381929381
C        13.08358014457987    6.07809068846366   15.59883484225251
C        12.63610568121968    6.60447421668563   14.39743396865088
H        13.29299422982938    6.63194586070186   13.53799169886467
C        11.35059795272675    7.11415987981797   14.29206077526304
C        14.47287261553690    5.53143416011515   15.73841160516434
H        14.99281427447264    6.01677535225423   16.56362582352066
H        15.04510099749848    5.68693341059419   14.82695686154242
H        14.44050246618891    4.46250489112726   15.94907713498395
C        11.92176205308635    8.36946673816321   11.74308143855736
C        12.92845567731617    9.13362428009400   12.32737483088824
H        12.92159686213720    9.29485485062797   13.39765741071231
C        13.92830810524844    9.67522137642512   11.54179185412930
H        14.71517765633707   10.25919740374291   11.99704773114904
C        13.91716292524549    9.47447171350989   10.17044502553915
H        14.69870199366333    9.89926365625521    9.55760718284838
C        12.89893500047303    8.74040976008276    9.58336624694095
H        12.88367470679262    8.59890629846040    8.51252317030368
C        11.89748830123488    8.19270464808671   10.36357498799405
H        11.09187811883445    7.63216929470607    9.91087230860732
C        10.04471957428769    6.19477149734528   11.97620409830306
C        10.93338807242785    5.22489972435869   11.52643532086497
H        11.99853160206096    5.39328313853712   11.60131455862276
C        10.44375979961751    4.05208253585213   10.98203713977690
H        11.12993944200265    3.29633938169267   10.62795733090951
C         9.07621770603803    3.84079114566266   10.89178751657749
H         8.70235000113406    2.92136856592884   10.46537746322236
C         8.18836209193591    4.80199359737827   11.34735610463265
H         7.12376803043320    4.63329839687987   11.27834256303573
C         8.67224793086623    5.97750159201977   11.89015695431899
H         7.98302475522556    6.75395026673291   12.25502596755518

