53
CSD_code = GUTLAJ | q = 0 | S = 0 | Stoichiometry = C20H24HgN6S2 | MND = 4
S        10.18196741300268    2.54442463309351    4.54947610940614
Hg       12.56350536985168    1.94720838845154    4.43658195973049
C        12.31910719705138   -0.89635948737440    6.09829280150776
H        11.82420910731642   -1.86611129531076    6.14528415372547
C        13.73248094539399   -0.81950840802783    6.39687379910420
C        14.55694046835342   -1.92189921711822    6.16085218545101
H        14.12494169046814   -2.83003430389051    5.76592471908304
C        15.91375497243886   -1.84629479527470    6.40236274673656
H        16.54274596790236   -2.70191124301910    6.20314161831741
C        16.46903294146354   -0.67867737263715    6.90178879265945
H        17.52999687800306   -0.62363813821279    7.09806863389542
C        15.65869429292843    0.41331614534278    7.16600816146021
H        16.08546137000105    1.31938804285226    7.57028395081142
C        14.30155975308583    0.34800151112659    6.91608189995680
H        13.66183640398148    1.18914782027772    7.16556763096030
C         9.61654903826388    0.96879971677976    5.07277303300366
C         7.36966731471265    1.74204354927641    4.46808087488243
H         7.87607022805095    2.41889878009552    3.78339797492141
H         6.94466485619882    2.33199197767378    5.28587607616768
H         6.56190481350194    1.23256495433636    3.94235471884384
C         7.69490067919429   -0.44847426314851    5.47850755732152
H         7.13951982597102   -0.95126961086334    4.68425643743622
H         7.00858394353181   -0.20866924420759    6.29470093452657
H         8.48244385773339   -1.10152714982333    5.84145214334429
N        11.65084570331826    0.14931679004577    5.75286642436421
N        10.33389782872264   -0.01182616893746    5.54475137662986
N         8.29468454796487    0.75878323082360    4.96476665607655
S        14.94520678284514    2.54401954636963    4.32416678467739
C        12.80777956154494   -0.89653752899855    2.77489640416488
H        13.30267666814398   -1.86629143733067    2.72784039068200
C        11.39438209863565   -0.81973235383557    2.47644004978688
C        10.57006780691978   -1.92229650357047    2.71218216948891
H        11.00220298563990   -2.83051795162801    3.10676773564506
C         9.21323298325881   -1.84679916005526    2.47074509955040
H         8.58435879118712   -2.70255443256612    2.66974804896467
C         8.65778823477409   -0.67910354817724    1.97168943272613
H         7.59680185955982   -0.62412113188451    1.77550294782661
C         9.46797736541259    0.41306961637954    1.70775186522783
H         9.04107303335523    1.31920865622047    1.30377360141325
C        10.82513685744585    0.34785146579432    1.95757939264375
H        11.46473861978735    1.18913678743495    1.70824299682606
C        15.51039985063508    0.96839834719871    3.80063564910172
C        17.75723558683620    1.74158696548389    4.40530708906641
H        17.25104541747961    2.41761690913027    5.09096197198658
H        18.18141283726827    2.33246917843797    3.58776175247769
H        18.56557168277838    1.23199230547194    4.93000229056606
C        17.43204422534874   -0.44873284510116    3.39430660879517
H        17.98762692496199   -0.95167062376583    4.18832622999952
H        18.11816721308399   -0.20869448630298    2.57801412716660
H        16.64447202915096   -1.10176078477058    3.03137300076043
N        13.47605748649212    0.14911959431114    3.12035613700438
N        14.79299737429358   -0.01209242689728    3.32848818882562
N        16.83227831478776    0.75835100032113    3.90846666430497

