65
CSD_code = GUTLEM | q = 0 | S = 0 | Stoichiometry = C22H38BP3Pt | MND = 4
Pt       -0.52463627091111    6.40749458689042    3.97477881362859
H        -0.44204376693208    4.93561885553787    3.56822622818562
P         1.76799407599880    6.09954278683237    4.27442033491740
P        -2.82094522088957    6.46732496411287    3.71752966050153
P        -0.72092668449205    8.68532794674616    4.32439058329137
C         2.55471318598730    7.65824555101292    4.79747731588657
C         2.95556790107208    8.53433712792390    3.78902312487737
H         2.78333610458424    8.25127129576129    2.75971186788420
C         3.59421780688277    9.72081687735776    4.09367900238863
H         3.90178150243558   10.39037173992727    3.30188953037153
C         3.85461105552933   10.04897984855791    5.41597581981884
H         4.35595349979832   10.97525754029211    5.65747845167968
C         3.48522964745746    9.17337732770778    6.42347066375961
H         3.70275271522603    9.41559272911469    7.45454484519995
C         2.84255282888391    7.98577106666247    6.11968142064861
H         2.57143878202727    7.30694851351580    6.91627974381049
C         1.70214317422747    5.21572063848663    5.87299623381031
C         2.79112048530091    4.48597087691995    6.33472981322662
H         3.68508314935412    4.44550424713288    5.73005246490261
C         2.71904957316591    3.81303476883989    7.54154742187048
H         3.56847530303530    3.24604041988874    7.89517837248633
C         1.55827874266771    3.85857318482900    8.29699926068357
H         1.50317361112129    3.33034336345844    9.23814571641747
C         0.46470697314536    4.57798580231557    7.84214315685500
H        -0.44304367185078    4.61025955115126    8.42913564911125
C         0.53879990725868    5.25318491370752    6.63796734755807
H        -0.31749076730497    5.83124729365768    6.27007807740111
C        -2.52861624568416    9.12611659877780    4.40837233433023
H        -2.83349051567144    8.99756506749210    5.45205861323907
H        -2.66144413496263   10.18174773349028    4.14957393830889
C        -3.37154238632764    8.22530325407554    3.51625433396470
H        -3.23072299950159    8.49723891578291    2.46707915119072
H        -4.43726020151301    8.31481411374863    3.75032448501242
C        -3.80798103151743    5.93682090885115    5.18282072624565
H        -3.59666276799182    6.64578886188476    5.98934808536186
H        -4.87439280608972    5.99675437410835    4.94300617278098
C        -3.41808829753702    4.53019546551072    5.62196946227777
H        -3.87408566493279    4.28518516750333    6.57916799208472
H        -2.33479282396953    4.45612137499085    5.71955161966550
H        -3.73987914871868    3.79107506369007    4.89201264241577
C        -3.67140649623082    5.60814259127596    2.33082141797303
H        -3.68659578748685    4.54597651197628    2.58863236306742
H        -4.70387742718275    5.96269297450906    2.25042386975810
C        -2.90522361970381    5.80134312863001    1.02808767709259
H        -3.27810964786255    5.13030498306356    0.25750508727597
H        -1.84756162466904    5.58816911688510    1.19280125298099
H        -3.00112478411207    6.82150725713803    0.66174113963746
C        -0.15964511973351    9.54570828999646    2.79467965818088
H        -0.76210732535269   10.44160223568554    2.61432424463611
H         0.87116245020496    9.85821418034088    2.98168250264744
C        -0.19578245503607    8.59647185667416    1.59909490316106
H         0.37858253757297    8.99855291185288    0.76657928044411
H        -1.21519165892070    8.43149783015814    1.25634265256562
H         0.23803448546142    7.62619134400661    1.87833087363900
C        -0.07953569087188    9.81484155649196    5.63414997962708
H         0.99050974244908    9.94444794519713    5.45838606992729
H        -0.56577958349243   10.78989589775724    5.52685162745601
C        -0.29861756062547    9.24232057941933    7.02890133998569
H         0.15406331645385    9.88677757934197    7.77955291728455
H         0.16170199594382    8.25868545011054    7.10225982557660
H        -1.35869286186174    9.14646490087480    7.25846959530512
B         2.96456320448178    5.24285673574406    3.01979345835665
H         2.82177802435034    5.82152106464881    1.98055133690253
H         2.60297902656808    4.10611768946488    2.96267032926079
H         4.06374224134784    5.38752467076298    3.47579611915269

