49
CSD_code = GUTNUF | q = 0 | S = 0 | Stoichiometry = C22H16Cl2N8Zn | MND = 4
Zn        1.59313119703809    6.66419890404452    5.79932609809939
N         2.95416824686191    6.20701879062691    7.38931586247723
N         2.38731353546831    5.79884312436252    4.01369857831721
N         5.14188576754057    5.69022934918466   10.88569048843792
N         3.50473834144681    4.26492551003258    0.31342523242024
N         6.40177767718958    6.19395758885878   10.95850145130128
C         4.85166032876471    5.06052404694308   12.07252397501866
C         3.92021749574645    7.05742267359495    7.72934773116116
H         4.07365658904304    7.88957428030195    7.05722748037103
C         4.40123849462912    5.83997406600274    9.72558231506484
N         2.81006719770570    3.20464794548952   -0.17928403019741
C         3.15311307839698    4.80062929118341    1.54047163671951
N         6.92592794596062    5.92478839967923   12.06576708401137
C         6.03582828077534    5.22759917795169   12.83323270184675
C         2.07020171404874    4.55634114075198    3.65581018988072
H         1.49813922315465    3.98944247009881    4.37624970355421
C         3.45689532211586    6.11083523884102    1.90757675835470
H         3.96024287597299    6.78352524642149    1.23475340125356
C         3.05773554371770    6.55676946544769    3.15231310092047
H         3.26343446296394    7.56755794660671    3.47588351913566
C         4.46565527648713    4.62218865359836   -0.60410158451264
C         4.67012218522352    6.91661636560766    8.87816616516788
H         5.44761579797633    7.61779197595421    9.13311456975308
C         3.73373975000622    4.43802201561429   12.61217804864114
H         2.80557802602710    4.34843193863160   12.07120419949176
N         3.23388343086054    2.88028544655399   -1.31309766343345
C         3.40879160215499    4.93510698928561    9.35154310198757
H         3.19298240353531    4.06106608409938    9.94242507898512
C         5.49761032453278    5.55051506193507   -0.65057117690737
H         5.70383482855670    6.22919057035036    0.16099410289970
C         6.13591279174489    4.73153139554359   14.13046666925047
H         7.04285282284349    4.86236022959594   14.69693808226320
C         4.26910477533479    3.70064185586722   -1.66347989427334
C         2.43071569757475    4.01350693929648    2.44094180170584
H         2.15648274951371    3.00727874586019    2.17017717154851
C         2.71379739973583    5.16682466137876    8.18096650331264
H         1.92205394303509    4.50430911651029    7.86071228907455
C         5.03114304263004    4.09109169847157   14.64170867805190
H         5.06108376050858    3.69132061272487   15.64372503367108
C         5.06960738357073    3.72286573856103   -2.80214132752304
H         4.90368001761502    3.01767420937357   -3.59941511768984
C         6.28168209665411    5.55509442064495   -1.78503944968851
H         7.09160102039981    6.26541035208248   -1.85563615734086
C         6.06870176540430    4.66731859068195   -2.84572171261811
H         6.71550124698054    4.72303044313480   -3.70785318474072
C         3.85174469526826    3.95784491920037   13.89918053216572
H         3.00398876574290    3.46714657888039   14.35276549712355
Cl       -0.09796730460803    5.32585377569939    6.27789228620308
Cl        1.95782638619268    8.81867595845081    5.47404417934284

