49
CSD_code = GUTNOZ | q = 0 | S = 0 | Stoichiometry = C22H16Cl2N8Zn | MND = 4
Zn       -5.57501833395216    9.17988641612296   10.70371525908388
Cl       -4.95721103878190   11.23216353460264   11.12411550818362
N        -7.76461984311606    6.41562228253562   12.02666481440382
N        -6.73070095297696    8.27929781959254   12.17275823354895
N        -6.58437309212422    7.02043572613422   12.02101929305795
C        -8.75965622054691    7.34119056939905   12.18770071321188
C        -7.83919772971372    5.03916333123349   11.78828644879061
C        -6.91740882551320    4.46371175437320   10.91891158052460
H        -6.18124729170562    5.08474783729686   10.43508965627711
C        -8.06057898404750    8.56550644200863   12.28174600295394
C       -10.79752490114932    8.50716711453059   12.34804809004454
H       -11.87677944363068    8.52356290692147   12.36142124452499
C       -10.10482287110659    9.72192176648672   12.46163664022204
H       -10.67308746379283   10.63363112891339   12.56294368182817
C       -10.14961300376253    7.30072617902470   12.20676166577298
H       -10.69551233859432    6.37826452636255   12.09176219985467
C        -8.79047915965972    4.23595685053317   12.40549687800937
H        -9.49971523643011    4.64130880859866   13.10888965799891
C        -7.00276591332416    3.09796627658522   10.70402674425187
H        -6.31551351586446    2.59647984033948   10.03580504650883
C        -8.73233597499717    9.77837520262750   12.42588563887155
H        -8.18418728871971   10.70488683730366   12.48526302207529
N        -7.90845282749906    2.32525129895022   11.27911807386659
C        -8.77510053460264    2.88155425913431   12.10483518799566
H        -9.49208897583162    2.20845338066272   12.55510071900774
Cl       -6.84708723246352    8.41196643818654    9.04082669219247
N        -3.01937616470225    6.19193088885908    9.67030380106825
N        -3.88026969965589    8.01599091858624   10.36970450612050
N        -3.99191035432993    6.74768786041515   10.38761612359850
C        -2.20797498581376    7.16873135799625    9.15589483891527
C        -2.96949442940983    4.79987582755986    9.53035932949306
C        -3.42748743718043    3.99928903277099   10.57278075433836
H        -3.80130770142138    4.44891999055803   11.47793216982051
C        -2.79163616566393    8.36753316345068    9.62758663420934
C        -0.51138024091202    8.42477231508070    8.11368727535277
H         0.39337190944262    8.48371795394247    7.52789040118714
C        -1.10455010648289    9.61566355930484    8.55925832469981
H        -0.64176481824235   10.55397404844405    8.29591694449872
C        -1.03947728316718    7.18588095204671    8.40104527125358
H        -0.55811321315058    6.27995807853708    8.06974976819842
C        -2.50827368063829    4.19894804036380    8.36491926768854
H        -2.18858701142961    4.78374045160562    7.51840938502429
C        -3.38713071659888    2.62543850057495   10.39716451178965
H        -3.73193251948220    1.95719868061679   11.17426620469502
C        -2.24401680607127    9.61456103105438    9.32745908840565
H        -2.70532126965941   10.51705602209821    9.69539201831864
N        -2.93420461166753    2.04461054927307    9.29993490519482
C        -2.51102201508307    2.81247936678442    8.31340252748760
H        -2.16156168475913    2.29344288176593    7.43139725569707

