62
CSD_code = GUTPOB | q = 0 | S = 0 | Stoichiometry = C31H24Cl2N4Pd | MND = 4
Cl        1.68820739615285    5.39531214149848    9.29385230115500
Cl        4.31001921631785    4.76937982539705   10.97305764469206
N         2.30312002438068    2.80758785348120    7.73311310359790
N         2.11602834283510    1.50773843330230    8.00217591636331
N         4.61063585171115    2.26555909979773    9.20998024658094
N         4.03996060199340    1.05501839270933    9.29458666454232
C         2.60087344451880    0.97764075469032    9.25236904796426
C         1.69002353595526    3.07814234708489    6.58760288186022
C         1.06239130737945    1.90482328003968    6.12099813713084
C         1.35687974985680    0.91834089809723    7.03788054737132
C         1.73056723431929    4.39563021127753    5.96974660495398
C         0.71651438474174    4.79748319445980    5.10269937342909
C         0.74835387629201    6.05389951006397    4.52825929681907
C         1.78956806983521    6.92250742635736    4.80959066973446
C         2.80545487568892    6.52872346686419    5.66569534274831
C         2.78142769039104    5.27298570976327    6.24005110523020
C         0.97635993340857   -0.48992500352170    7.05061801527642
C        -0.35691469002813   -0.84305497777039    6.85373256263489
C        -0.73314499145906   -2.17278265251317    6.86877509428889
C         0.21416847798544   -3.16307473083021    7.07398355821929
C         1.54436887211207   -2.82051964281374    7.24871240230165
C         1.92665914005835   -1.49175514847719    7.23543614866923
C         5.92552498953736    2.09491269992663    9.15519262251637
C         6.20431653804707    0.71397607997637    9.19167217066394
C         4.98501726819762    0.07446509190449    9.27886035908120
C         6.86011070001044    3.20947397170270    9.07835837146298
C         6.46884174114095    4.43524932106780    8.53852638585991
C         7.35287373254031    5.49618354103293    8.50670554987756
C         8.63855598624304    5.34728362911216    9.00124558900489
C         9.03926549963752    4.12990278435749    9.52587818678030
C         8.15816263287705    3.06617872579603    9.56536756762686
C         4.70199141369015   -1.35261393331090    9.37362393714890
C         3.81483936662534   -1.85910956322973   10.32208420923975
C         3.57602931154026   -3.21921493756183   10.39378383353258
C         4.21955986859377   -4.08776952372641    9.52806306074519
C         5.11628249997335   -3.59331751637263    8.59455134473550
C         5.35983423741482   -2.23527084686219    8.51788228544910
Pd        3.29988216533388    3.86309261977950    9.20929863805253
H         0.50244348940835    1.78472529742776    5.21701515414076
H        -0.10964615618063    4.13275938244517    4.89968924192213
H        -0.04692364331225    6.35995773393865    3.86456798716996
H         1.80766627740699    7.90640717189415    4.36523563050917
H         3.61610124229378    7.20522986264060    5.89011418423163
H         3.58845176237807    4.96491504214123    6.90784205330415
H         2.97095714785738   -1.23488184363174    7.33723527608396
H         2.29093733203214   -3.58662318487572    7.39388777460906
H        -0.08290649967354   -4.20062251629436    7.08919884896298
H        -1.76924626360219   -2.43794512207084    6.72210844613444
H        -1.09221365286988   -0.06719833367767    6.70334649587597
H         2.19445157148811    1.60546736652416   10.07931058334926
H         2.27388799856037   -0.05964949229893    9.35424049321128
H         7.16652117141922    0.24611075594845    9.16818434014329
H         6.05247808461715   -1.84532654716621    7.78675784563057
H         5.62734504050497   -4.26773243741775    7.92382402283247
H         4.02956428426362   -5.14884189173859    9.58682408966843
H         2.88973934395212   -3.60257171621477   11.13359871562065
H         3.34185060023932   -1.19302971446366   11.02920140025667
H         5.45794917956043    4.56011868208607    8.14130626988342
H         7.03586617207355    6.44490501971958    8.10112430378068
H        10.03960169775679    4.01162323972539    9.91566402054183
H         8.46653546114707    2.12744413680878   10.00054335418830
H         9.32557806287111    6.17997657596549    8.98166869062827

