59
CSD_code = GUTQUH | q = 0 | S = 0 | Stoichiometry = C18H33F4NNiP2 | MND = 4
Ni        3.56793849382878    1.27342295028348    1.99049111172919
P         1.47616475917214    0.97029050379886    1.38525620669854
P         5.64649621378467    1.01507247158446    2.61140067679116
F         3.30663973446351    3.55335293142818    2.44785818583135
F         2.64784726701361    5.25265736557629    4.58250883758542
F         2.04759862311245    4.03886670736934    7.00726860249871
F         2.71275309854252   -0.07710008074410    5.35178227244565
N         2.39373736804866    2.00194939589919    6.10808890866400
C         0.18723038905051    1.58050856101581    2.56819128365483
H         0.38879048911594    1.08847732038700    3.52337300368872
H         0.37537949527658    2.64809120182397    2.71614318750870
C        -1.26856457785189    1.36421157050331    2.17570166577484
H        -1.53380609544552    1.93416489498222    1.28915246963862
H        -1.91236122513980    1.69563042462735    2.98875061470971
H        -1.47807383526800    0.31367554648444    1.99084364297983
C         1.03468721942628   -0.80943700886428    1.17717801953278
H         0.04773000975204   -0.89114305134246    0.71507482293912
H         1.76494655608155   -1.23141839994126    0.48133206689607
C         1.08651158074698   -1.55991905123598    2.50267593157656
H         1.99578871157251   -1.30659643295968    3.04553433017079
H         1.07357017225079   -2.63497887335328    2.33503909532575
H         0.23625737342034   -1.30471548255242    3.13020807838268
C         0.87418369839371    1.66574741671373   -0.21726603021358
H         1.49402619514053    1.24738454270315   -1.01226927818336
H        -0.15256892499692    1.33263631128502   -0.38504995045317
C         0.96648006391422    3.18643623037355   -0.23710780142843
H         0.25934535545332    3.63141015957950    0.45920200721401
H         0.75095334912866    3.57057350531374   -1.23236276554237
H         1.96780975406153    3.50501161859860    0.04654483666120
C         6.18400070094917   -0.71851162817617    2.28399372681560
H         6.49712048867053   -0.78366986596643    1.23968340748870
H         7.03663751800073   -0.97662539078312    2.91481498823152
C         5.00745686104911   -1.65286759961179    2.53442689429968
H         4.73241111431925   -1.65585540439336    3.58734900877906
H         5.23898821325445   -2.67264457286770    2.23394485103870
H         4.14864363624292   -1.29862704504428    1.95582874136409
C         6.99755584433211    2.00154516095321    1.83371812810597
H         7.95614234453789    1.67209379889179    2.24080604865158
H         6.99344309475264    1.78588113888817    0.76376019405023
C         6.78089409004313    3.49324412312837    2.05282278663301
H         5.80804096167626    3.78567955958663    1.66233319278680
H         7.54598909602165    4.07318459047837    1.54014841653242
H         6.81371644449863    3.74394815543555    3.11113965840346
C         6.00783908147770    1.20192804984669    4.42022158209661
H         5.58883779270852    2.15994632820667    4.74059175441479
H         5.42700343418235    0.41932792938258    4.91710826845675
C         7.46596080398483    1.11766835373455    4.85319655929929
H         7.94642302588470    0.21546412547870    4.48175857252373
H         7.51584349544525    1.09807456699472    5.94036741514205
H         8.03288893882024    1.97921581392199    4.51001647711014
C         3.03116019104753    1.67073640927062    3.79662860178143
C         2.99518219618356    3.05916579864539    3.68615778994499
C         2.67292677990857    3.91549119690434    4.72706865364384
C         2.37338107938868    3.30016401133531    5.94119031183392
C         2.71041369418582    1.24098389770411    5.07901048894493
C         4.13775862930993    1.11447602348426    0.12126760639220
H         4.03327414169281    2.12671375390959   -0.29182111020568
H         3.51476906123207    0.43742236057354   -0.47313410467605
H         5.17040593424347    0.79768311071747   -0.05084294269366

