85
CSD_code = GUTQAN | q = 0 | S = 0 | Stoichiometry = C22H56ClNP2RuSi2 | MND = 7
Ru       -0.19208634985006    3.15600286872149   20.72596115744541
Cl       -2.03245525482122    1.63653889331488   20.40605255530576
P        -1.59027567805336    4.72991924962237   21.83868773623757
P         1.35315659444409    1.92592747332619   19.40441052184379
Si       -2.55565278747774    4.90733767292887   18.83401307450275
Si        0.08900131515462    3.97604586687076   17.35325785760356
N        -1.12827142272924    3.88469348164786   18.62092005889558
C        -2.59733654545893    6.33381432639899   17.57295653822869
H        -1.83511086456600    7.08286595227181   17.74963530772416
H        -3.56080148229807    6.82771129348182   17.63257080094272
H        -2.48276932212330    5.96956972364180   16.55956094917229
C        -4.10527945212125    3.84450000960490   18.50342399010137
H        -4.05744318741773    2.87120480997836   18.98087929386693
H        -4.21343077929371    3.68161171224628   17.43452855324164
H        -5.00672849125054    4.33971420410851   18.84925908353715
C        -2.43796486566738    5.75310770045866   20.55165715797052
H        -1.82223728489075    6.64389984285288   20.41972680611123
H        -3.41197370419473    6.07965352485775   20.91419894222146
C        -0.65754512240195    6.09838741926853   22.81043764017893
C        -0.04886234424753    5.46583483287301   24.06229220111202
H         0.68615820408348    6.13886574570996   24.50274764466743
H         0.45167992144491    4.53301791946024   23.79606506463433
H        -0.80335049908096    5.25663444183851   24.81617651995680
C        -1.48280359963082    7.33535563362276   23.18553263732638
H        -0.80283313594410    8.15902913168682   23.40315742755572
H        -2.08423941451081    7.17900648033197   24.07263442146138
H        -2.13294586656639    7.65518393290337   22.37542006556330
C         0.50014325550686    6.58834128802129   21.93299475655136
H         1.05053486327904    7.36729186441337   22.46042896035983
H         0.14794246345924    7.00772932783675   20.99248398439551
H         1.18880280908744    5.77915286509706   21.71237240263396
C        -3.04616261718440    4.13510427156988   22.92840049831820
C        -4.17225054819347    3.63553358465547   22.01979351539469
H        -4.90776849476817    3.10305092509161   22.62260822564759
H        -3.79591419139664    2.94287496351775   21.27550576405910
H        -4.68381645635796    4.45248528189459   21.51601286751486
C        -3.65633715580815    5.17252483431018   23.86936714540132
H        -4.56139249302828    4.74978633138312   24.30710576484749
H        -3.93937085844477    6.07923355385350   23.34040180736677
H        -2.98785049841299    5.42044140192225   24.68812114563314
C        -2.52630053620963    2.95318026697303   23.74945767698883
H        -3.31213019899636    2.57501705590283   24.40289677917078
H        -1.67292445736754    3.23486182517437   24.36169943516857
H        -2.21541012269528    2.14492652404167   23.09182022133866
C        -0.69045811914404    3.45708854616871   15.69089598758491
H        -1.31907953735173    4.25379410067206   15.30964946382012
H        -1.30690470675101    2.56737534859366   15.77275302748850
H         0.07510371693159    3.26562307128858   14.94670474091861
C         0.79531471765491    5.74519646183754   17.24741338212120
H         0.96461939407305    6.16659198610975   18.23394008280809
H         0.12990814766125    6.40773644698966   16.70724113031656
H         1.74585546734771    5.74352054815613   16.72197891067250
C         1.55884831577497    2.83080828419388   17.80424044625072
H         1.79900617133378    2.12869709900483   17.00660525673649
H         2.42620863628571    3.47570202430612   17.94075081051674
C         0.93786814969956    0.16195307423010   18.79212084300091
C         0.50673538840040   -0.68102297008449   19.99332438076213
H         0.11993802675004   -1.64066300054569   19.65098315094821
H        -0.28128216543956   -0.18122552431916   20.55000098796720
H         1.33283709915137   -0.87104906309834   20.67193422008076
C         2.05327487779564   -0.56914499458739   18.04586272267704
H         1.62994044945333   -1.44923935726978   17.56064340653611
H         2.82456357961953   -0.91743863777558   18.72685283304425
H         2.50513008120478    0.04830039721006   17.27272479880820
C        -0.25606729978036    0.28755769995941   17.83885974035304
H        -0.58564589990199   -0.70804535469690   17.54094299488414
H        -0.00017448268904    0.83843207961031   16.93656538500386
H        -1.09897740192641    0.76747829299741   18.32952761022888
C         3.16064982043937    1.93135533390517   20.03877538588837
C         4.23865839610453    1.58303896201494   19.00799729256860
H         5.21513101123113    1.80245335922540   19.44024194876243
H         4.14232191059678    2.17403333465891   18.10097600763268
H         4.23682270128062    0.53398309456817   18.74020153873922
C         3.25379145091123    0.98484799894419   21.23571214522130
H         4.15755854499455    1.19228259862237   21.80765337678848
H         3.29107683060732   -0.05509418110355   20.92132324449575
H         2.39115958494452    1.13240072262017   21.88749570490043
C         3.45993033007491    3.34772825714376   20.54302057334268
H         4.51128335815256    3.42416826460130   20.81860236420072
H         2.86009838459265    3.57183372080371   21.42145876511766
H         3.25166108789926    4.10280020345689   19.78776692105128
H        -1.43233281950208    2.91157114646596   18.72783455342314
H         0.63320949422671    4.33291899662034   20.24640524920676
H        -0.05525881191862    2.18667344327778   21.90685846192001
H         0.87488277656193    3.50400787530838   21.73002519495152

