52
CSD_code = GUTVIA | q = 1 | S = 0 | Stoichiometry = C25H21MoNO3P(1+) | MND = 9
Mo        2.83858058727056    2.82824758726569    2.03747179730200
C         2.40086616601137    4.09212928143228    0.63191661195507
O         2.05350898107612    4.79583256820267   -0.19790578140576
C         1.62751473496004    4.05374136660385    2.95326323829077
O         0.90969212548705    4.79939517252270    3.43733817118882
C         1.06653735741460    1.37801681828729    2.07843969814685
H         0.01571893054093    1.56387500581016    1.89327077208252
C         1.68581614546428    1.35090221130031    3.36921959487086
H         1.17039368855434    1.51590791824301    4.30844134773282
C         2.97845621445818    0.80505440024857    3.22606766607334
H         3.63950410847635    0.52040375031131    4.03305562355895
C         3.15642945178197    0.49039755448470    1.86612801891690
H         4.00338967067602   -0.04479384554897    1.45132419652418
C         1.98897570935488    0.85111395631975    1.15140688473697
H         1.77868814891091    0.59888990157460    0.12141055446936
P         4.37296902380231    4.20335227417115    3.25721275109616
C         3.84484595943943    5.85824174792479    3.78479808798656
C         3.43989542736749    6.71635174351608    2.76155306595993
H         3.46862075158266    6.36987081202984    1.73265570900733
C         3.01264017535821    7.99481576639767    3.06084227797470
H         2.70114358894563    8.65797835435460    2.26891782400663
C         2.97870763762087    8.42004021916354    4.38131825639317
H         2.63643173806065    9.41571735624351    4.61627075609922
C         3.38304247973579    7.57103033760001    5.39753887746274
H         3.36013966092875    7.90505199455534    6.42335923003507
C         3.81956581562572    6.28913091715289    5.10578853327003
H         4.14024484323743    5.63243385261283    5.90182958198484
C         4.99445484131353    3.41002542137743    4.76113703421646
C         4.01763896349175    3.06454146398768    5.69642462954024
H         2.98447507453257    3.33503664747821    5.50386373792320
C         4.37135618611283    2.40174615136208    6.85526128812389
H         3.61744193290405    2.14607011795391    7.58405729600195
C         5.69906386828476    2.06404143163921    7.07818451868127
H         5.97624257381160    1.54308571604399    7.98127359066559
C         6.66752292367297    2.39083081625201    6.14373202121213
H         7.69821984704493    2.12286395322965    6.31783777270390
C         6.32190012624774    3.06221488283052    4.98201255381399
H         7.08463335397688    3.31347468013208    4.25805002760935
N         5.79859048000847    4.64252625820535    2.41079540974969
C         6.68055891237042    5.58060912543400    2.85842852387881
H         6.48127871611679    6.14344156452997    3.75174684554835
C         7.75268016717242    5.64911875212603    2.00248506901322
H         8.59575861682896    6.30385413481315    2.09516126125390
C         7.53584505198591    4.70935883973451    0.99213154930420
H         8.18660659916097    4.51004820094365    0.16444377325695
C         6.32108542469133    4.08199630899088    1.25258465848822
C         5.68546862363490    3.01751443869731    0.54390774170752
O         4.56903688235076    2.56377895767506    0.84108168724039
C         6.42578850043519    2.40113658746442   -0.60948565095103
H         5.84007961095937    1.58312474754945   -1.02281486267175
H         7.39740187210705    2.03028001048960   -0.29126474294654
H         6.58705172864810    3.14775176828038   -1.38446907909842

