52
CSD_code = GUVFUA | q = 0 | S = 0 | Stoichiometry = C21H21BMoN6O2 | MND = 8
Mo        5.70129902112833    6.38920837092364    4.90979309374715
B         3.32246526249698    5.05423472105835    6.82942383694341
C         6.62753016480671    8.04157956483701    5.25007696029312
O         7.24078205072769    9.00091624737347    5.40450240641639
C         7.48487058932480    5.57607492205751    4.79779806757153
O         8.51460510978455    5.14707585143098    5.18961125799637
C         5.83018969567581    6.23179332917486    2.76403223445654
C         5.68391520945400    7.61697599403227    2.96661356805234
H         4.75842551332002    8.06421653201135    2.60877404438047
H         6.54169233087340    8.27354421702648    2.84151684496731
C         7.17929863103843    5.72097441722108    3.16955504531445
H         7.37101705404873    4.71521290562823    2.78267869613463
H         7.98641477082285    6.39006310239344    2.84211753036328
C         4.96414683999274    5.48392730658145    1.78498526706119
H         3.97820396166574    5.94741278935217    1.73493150348090
H         4.83648935359115    4.43373031491549    2.04054983040259
H         5.41039259691408    5.53496776743509    0.78791651685187
N         4.63490028018380    5.27527592483287    7.62357150292081
N         5.67208409075676    5.83652089381244    6.99243758843600
C         6.71261074740085    5.79936723939400    7.81138911278039
H         7.66184677200205    6.20536591940141    7.51725076981059
C         6.35131251142605    5.17536936166913    9.00302431636667
H         6.96707543635652    4.98530627161036    9.85743849724497
C         5.02220214281852    4.84712471315659    8.83386741091431
H         4.35376203028908    4.32777273585791    9.48971458695433
N         3.78349110257913    4.06919966688367    5.73751637127106
N         4.71933128227599    4.41811537657762    4.84547830210758
C         5.16047429602034    3.29793299315609    4.29102336200363
H         5.93620117231860    3.28936724685042    3.55091515954522
C         4.50331015639037    2.19386601094833    4.82918874515902
H         4.64544335663748    1.16226816760061    4.58217124272248
C         3.64526185686404    2.73212009447650    5.76002733988124
H         2.97283797178505    2.24631332260945    6.43609781078879
N         2.96667457119302    6.41306154256691    6.20072695486891
N         3.89094164462902    7.14832968918651    5.58757617970380
C         3.33905544889726    8.31395951891410    5.27707961762777
H         3.90749959328398    9.08748595403933    4.79501312758760
C         2.01010812234578    8.33068021857927    5.69231365480086
H         1.29822501826527    9.12243967270282    5.58279370624779
C         1.81666622150536    7.09906053236313    6.28271886625855
H         0.94463353907265    6.68530912757453    6.74665364822861
C         2.05243879112970    4.57306350059511    7.68956914172475
C         1.03192281101129    3.81019404071961    7.12091414456085
H         1.11183863939065    3.49925157874023    6.08902818621586
C        -0.10010017564811    3.45847789333236    7.83540883013132
H        -0.86733511881121    2.85982624424655    7.36554243040021
C        -0.25425505050276    3.87937891659614    9.14445309862244
H        -1.13337578387657    3.60212359224111    9.70731653140852
C         0.71874941372000    4.68071617170146    9.71542871254992
H         0.59561296836353    5.04410336895829   10.72556105894159
C         1.84656471540873    5.02786301710066    8.99230112237317
H         2.57225126885317    5.68758112755284    9.44541216440712

