47
CSD_code = GUVJOY | q = 0 | S = 0 | Stoichiometry = C24H18ClNOPdS | MND = 4
Pd        1.77770260741738   16.11002141565459    7.30519827168417
S        -0.23912206719524   15.08847290628946    7.15697796278848
Cl        1.81314569415542   16.41018572695345    5.07367020651873
O         3.60595391984743   16.92503669007297    7.46410854930744
N         1.65359908371600   15.91833737408357    9.31183273565946
C        -1.55451422885091   13.56175401183471   10.64940033030691
H        -2.39506552330603   12.97537393267440   10.98499992991190
C         4.19467875144509   18.11282711559739   10.89551905753258
C        -1.46394243771298   13.95828820697908    9.32753752629930
H        -2.22617485259959   13.68342515362393    8.61403387761481
C        -0.37995196639926   14.70349758456156    8.89935221596327
C         5.51231333325096   18.59208707019093   10.70323261095841
C         3.53820920182215   17.37635683021852    9.83279898587220
C         2.37637334887167   16.65011325736507   10.12890120930332
H         2.05926396057194   16.67182913187073   11.16838882717273
C         0.62217537010348   15.12454297181642    9.78839711726444
C         2.89721788160311   13.61415232488969    6.91836631296035
H         2.98652215198564   14.07478184858732    5.93283770343558
C         3.58185769313436   18.40693977572546   12.12453792590568
H         2.55434311644926   18.13109496267410   12.30632824102019
C         4.14406051598732   17.34751970743146    8.52978355934976
C         1.65967963589526   13.11852905157449    7.35606213123331
C         6.14725835034695   18.39910467919435    9.44336630367387
H         7.16217205731147   18.75153159912974    9.32386078485318
C         0.53063997567681   14.67100757096989   11.11296811248661
H         1.31955927483157   14.89324677487378   11.81470216358895
C         5.49413467599450   17.83208648450438    8.40886906191973
H         5.94626671309894   17.72777241264038    7.43415631364916
C         6.17663984377911   19.27370760950407   11.73253179103244
H         7.18593924224815   19.61709379433079   11.55676399839262
C         5.55848388354865   19.51618109468092   12.93321584329379
H         6.07244531950891   20.04513640439771   13.72137126470409
C         1.59190674850371   12.41344504191569    8.55165762124777
H         0.64807630909378   12.00433724614156    8.88376442670287
C         3.93716618764926   12.76860105080830    8.91837549080883
H         4.81614634510200   12.64725446742079    9.53352252786888
C        -0.53883369511398   13.90537643449741   11.52901347913469
H        -0.58004722209644   13.56957990523804   12.55432228651576
C         4.02623428243816   13.43848471711165    7.70520573914975
H         4.97882598273696   13.81583506180773    7.36366608941780
C         2.72774146747542   12.23755879176373    9.32735327174901
H         2.65815852095024   11.69360278900554   10.25756346908487
C         4.24509069474822   19.08983043875999   13.11715784626831
H         3.73765822550374   19.30523173906255   14.04623624521491
C         0.41714416193150   13.44687423806277    6.59087035292778
H        -0.37859757354073   12.71819554208236    6.74264849227894
H         0.61046503808536   13.59675706141465    5.52747173596794

