51
CSD_code = GUVJAI | q = 1 | S = 0 | Stoichiometry = C18H22N8ReS2(1+) | MND = 6
Re        1.97802182793617    2.15821262539525   10.42017705630412
N         1.10826465129472    1.02857002366468   11.93350796910213
C         1.75754938024837    0.25542007211339   12.81139794581833
C         1.11382502794402   -0.52423711584480   13.74289238403309
C        -0.28344602071966   -0.51297994171082   13.78499303449214
C        -0.96593923778262    0.28707670836303   12.90254367304968
C        -0.25325184296789    1.06582968409548   11.97608269778146
C        -0.86201900116056    1.94996385048804   11.03343559691135
C        -2.33863730193333    2.11778324072652   10.91339519882365
N         0.00393002740297    2.61241989164047   10.29151218436450
N        -0.48133517776512    3.47271934437950    9.38784134259341
C         0.38890278675771    4.15087863601079    8.70237961845000
S         2.13226720564024    4.04917899343238    9.00774693618404
N         0.02301793744470    4.98940134507030    7.73911253417433
C        -1.34306931038214    5.24491345136209    7.35664174606575
N         2.79723592255852    3.24531242268096   11.99131849852020
C         2.11924931313035    3.99092506288835   12.87133825414085
C         2.73201292147450    4.74547184905109   13.84347384584056
C         4.12747858737872    4.73751295120338   13.92646347680972
C         4.83889216397705    3.96511745854625   13.04220549049649
C         4.15701709135639    3.21078685021465   12.07333669465476
C         4.79685386478779    2.35484597226266   11.12523652585628
C         6.27725173368371    2.19743734180552   11.04365780972050
N         3.95591407823207    1.70887167261488   10.34117107755400
N         4.47079972418562    0.87368289118639    9.43040026166464
C         3.62364972711253    0.21338366209540    8.69998070540332
S         1.87085255990689    0.30972306778402    8.94979164510446
N         4.01946742574936   -0.60667642288271    7.73282793926209
C         5.39483074343030   -0.85053872830188    7.37798171984847
H         0.74946228877475    5.52233077620980    7.28391268082043
H         3.30524638395220   -1.11158402736855    7.22872293087017
H         2.83833293041116    0.25833972144184   12.74082472430077
H         1.68377643605194   -1.14120676341819   14.41722962221144
H        -0.81239038463083   -1.12313411427975   14.49942394037880
H        -2.04221223471110    0.32861944001053   12.90655253386911
H        -2.55217129504289    2.87449691250781   10.16456605925534
H        -2.76858037855707    2.42514627378857   11.86505370219183
H        -2.80359787100563    1.17979586810767   10.61439800156010
H        -1.43109216555577    5.21859362559781    6.27086836756978
H        -1.66676858575972    6.22431623321068    7.71518074569686
H        -1.97393777643167    4.47596424080804    7.79444055212037
H         1.04104515800729    3.98669545414846   12.76860647940507
H         2.13988800669620    5.34093977523883   14.51803652506375
H         4.63266409447878    5.32872836561886   14.67326797375327
H         5.91472231924714    3.92678405156610   13.07707122166749
H         6.51729575056068    1.46968004423076   10.27448413044224
H         6.68017031134970    1.85708098113448   11.99598531681128
H         6.74594500608852    3.14771416936069   10.79327402392960
H         5.67027039065425   -1.88122781759596    7.60847839264615
H         6.02340104384879   -0.17221215605935    7.94779874969413
H         5.54054376265980   -0.67616791458359    6.31147946272281

