57
CSD_code = GUVJUD | q = 1 | S = 0 | Stoichiometry = C28H24CuN4(1+) | MND = 4
C         0.19376644880817   11.18019426170480    2.00526186562650
C        -0.15007580923567   12.45547461257781    2.55127307659546
C         1.57658088122954    9.33289024127692    2.08954616567373
C         0.89957383429148    8.75124401247026    1.00362832571607
H         1.21778219209650    7.78617497243084    0.64199071772927
C        -0.15226111689740    9.41048736801570    0.41951402709663
H        -0.68540149223655    8.97889483674331   -0.41422670371063
C        -0.54036806343035   10.66829714801045    0.91617766494945
C        -1.61726363956545   11.42850948049319    0.38050278139589
H        -2.16650814498415   11.01756369702792   -0.45290748253966
C        -1.94702821412781   12.63624816994619    0.90219280220097
H        -2.76560804383280   13.20979721949437    0.49466989905956
C        -1.22413728606891   13.18260649880627    1.99925395690697
C        -1.51716751406709   14.42941252062136    2.58149908721743
H        -2.33193834591427   15.02125394652893    2.19226014764693
C        -0.76135032670455   14.87423510063450    3.63653445933819
H        -0.96500449226780   15.82611874409794    4.10108792701134
C         0.29561204658344   14.08638944414139    4.12425768034423
C         2.72072944833945    8.63387945036862    2.74059744140886
H         3.51286663789303    8.45147698968032    2.01641053771445
H         2.40082572193485    7.66959600960834    3.13179239158701
H         3.10934756675427    9.24274618957863    3.55522444937572
C         1.13175038095604   14.55042902802897    5.26745994128486
H         1.89180680543925   13.80447570244807    5.49459304607001
H         0.51142461700424   14.71348635934580    6.14718175309680
H         1.61485629792198   15.49489478169406    5.02275410840299
C         3.53849950959598   11.03158453672155    6.36014334623795
C         4.45935526159723   11.60445574588651    5.42924280797930
C         1.36940532712951   10.37463514843517    6.80232487066449
C         1.73804543649160    9.95459027690089    8.09208159191415
H         0.98712988611318    9.53466257302915    8.74259863038057
C         3.03945707205408   10.08022084124558    8.50770923739993
H         3.34171220406594    9.76144097280037    9.49394222584977
C         3.99308518704393   10.63343426856359    7.63367875845219
C         5.36495797486560   10.80398257846541    7.97056585558510
H         5.69188103404440   10.49173016246177    8.95073607224257
C         6.23984792175089   11.34284341784415    7.08527447444024
H         7.28026598845010   11.46941331452209    7.34338575640507
C         5.81262443637726   11.75755450020465    5.79295617186690
C         6.67145400107539   12.32366541426005    4.83309131923393
H         7.71665335223457   12.45955008077578    5.06703393722778
C         6.16614075698242   12.69490437616517    3.61282770411093
H         6.80295235648463   13.13074750923331    2.85924313676432
C         4.80115949886434   12.51006414573087    3.33267449138448
C        -0.03788887688960   10.24511499606464    6.32876855320992
H        -0.12268456166508   10.63296144081950    5.31477653989327
H        -0.70939692480288   10.79692505098880    6.98447342702910
H        -0.34557169717042    9.20074699214480    6.34193417225426
C         4.22954639315005   12.90786221184453    2.01494766804247
H         3.16116470010036   12.69835159902869    1.99852809035172
H         4.71690836758390   12.35845023462856    1.21118506485614
H         4.39260752162723   13.96941243217963    1.83725422728617
N         1.22094728759860   10.51101862185450    2.56341109890057
N         0.57875951566705   12.91603897259247    3.58632581543062
N         2.25512348183764   10.89399688052622    5.97471779255460
N         3.98735011412060   11.98014820744617    4.22487099515861
Cu        2.00989708369613   11.57971571087474    4.08856609969669

