95
CSD_code = GUVKAK | q = 0 | S = 0 | Stoichiometry = C35H52Cl2N2O3Zr | MND = 6
Zr       -8.28238969040318   12.09590023633870   13.81309916165410
Cl       -7.81064865192925    9.81649665491713   13.42865194074240
Cl      -10.31175374148638   12.16712854259120   12.62683390888628
O        -6.37810638096044   12.11850535619965   14.97139106017667
O        -9.14006895850995   11.83516769888593   15.49570409626677
O        -7.24859191029581   13.07375035493660   12.54028553087227
N        -8.99785929546134   15.11392462064640   13.45997736056051
N        -9.35413176226129   14.59908642896679   15.54345382414986
C        -9.34950143955444   13.84929544072316   16.73422352351564
C       -10.14989808248646    9.56368467215036   17.01477394006879
H       -10.13776586773854    9.92531667486253   15.98787497718905
H       -11.11520872024616    9.80373177778539   17.45682595938449
H       -10.03337838014588    8.48218256045229   16.99731887979008
C        -7.98717149330525   17.49638879431885    8.12915403510160
H        -8.29581704741657   18.24283542043140    7.40008585188071
H        -7.42896306380912   16.72340744083153    7.60926284190451
H        -7.32290643136115   17.96962291578841    8.84936618973973
C        -9.98174456573664   18.07186267366974    9.48773012765991
H        -9.36557495253880   18.59185978866620   10.21802659779534
H       -10.89033835676654   17.71899329914609    9.96970120715268
H       -10.26757971202451   18.78765738094476    8.71951355340551
C        -9.03084509073581    9.56067827547667   19.22815463806388
H        -8.89965013857265    8.48539587012299   19.12688672385303
H        -9.97860378808177    9.73407865329076   19.73241229787756
H        -8.21988247161650    9.93935989636761   19.84685160843580
C        -8.69168043553127   14.25721299721059   14.43543677861347
C        -5.20358148769096   11.53617186696054   14.40071097612737
H        -4.78055763576041   12.21928086297755   13.64918994333881
H        -5.49553587269874   10.58924459021002   13.93620860304380
C        -8.60004609861859   15.00262993939016   12.11246540468450
C        -5.43378100017685   12.44790484335620   10.32933327704918
H        -4.84086355162706   13.30699805525142   10.01949505078765
H        -4.94890014748499   11.54159815492854    9.97222463023583
H        -5.46926481861275   12.41764839150402   11.41506950258194
C        -6.73492324535368   12.53345545672125    8.22458777343443
H        -7.71484368059193   12.55606421381613    7.75444317837553
H        -6.23835713141792   11.61531260352068    7.91701210814600
H        -6.14085791678478   13.37043213656891    7.86353573429045
C        -9.21598672297269   12.43727962132897   16.66269013856245
C       -10.13974077256145   16.23801873647926    7.82264752074691
H       -10.98856417137137   15.78500306114642    8.32967637934389
H        -9.61880723293599   15.45973076085257    7.27290011114429
H       -10.51114238506010   16.97029488246638    7.10847509600637
C        -9.50541724767622   14.48912147396809   17.95415940790159
H        -9.61505710956221   15.56208956659567   17.96486407639510
C        -9.70252435268469   13.59818177834878   21.67430950352555
H        -8.76081935700459   13.06227556958022   21.76522228983912
H       -10.51761696428584   12.88154182374693   21.61227624672645
H        -9.84122058355677   14.18732063228579   22.57872800291274
C       -11.03357525934103   15.27837009773177   20.42655906082270
H       -11.19662251592901   15.79664305171547   21.36919563998084
H       -11.85086947156235   14.57772475087465   20.27123007339092
H       -11.05878034158432   16.01318172288813   19.62675344704320
C        -8.54264729781042   15.52814352229657   20.63086332393868
H        -8.52099768610104   16.25229838387787   19.82115550342820
H        -7.58936742313185   15.00377813750271   20.64472690225315
H        -8.65273203900168   16.06931234783340   21.56824494689877
C        -7.55619202151059   13.79483626141541   10.28322478062086
C       -10.17034877894474   15.80422735912802   15.37239991792528
H        -9.79082548676146   16.61639111918965   16.00067150503292
H       -11.20598846447280   15.59634198062156   15.65048436366074
C        -9.99380117328705   16.10994982684046   13.88548727770675
H       -10.91772352660770   15.96519340921123   13.31870381485414
H        -9.61814289289230   17.12233297691801   13.71904436621235
C        -8.02943425367490   14.77069806823913    9.42564182110023
H        -7.83649828851673   14.67088085944142    8.37255611065180
C        -7.78942973436729   13.92370644919395   11.67359123335732
C        -9.21432373362738   16.91333842920218    8.84410004295485
C        -5.92888611668785   13.12379341134190   15.88279229976329
H        -6.67032216017187   13.19645069383050   16.68485873990640
H        -5.86322331369543   14.08813203398136   15.35657831398613
C        -9.51345906970816   13.77893034664851   19.14532755848139
C        -9.05008412938978   15.95847804709771   11.20517183669292
H        -9.64852877468740   16.77542674863959   11.56514642198419
C        -9.69467310256072   14.52767281650458   20.45794840784812
C        -9.34940839457166   12.40029133031246   19.07337872434575
H        -9.34458701123648   11.83686512725913   19.98750082444661
C        -9.01775462393139   10.19927958743374   17.83457346316924
C        -7.66250879027722    9.88175752561420   17.18189933150973
H        -7.64391976842919   10.21783516720380   16.14404742927958
H        -7.49097385676163    8.80732471872583   17.19211978105074
H        -6.85835596855484   10.36775369956140   17.73430918735025
C        -4.26592156815335   11.38748101484240   15.59532217948149
H        -3.22481408150224   11.29150828038317   15.29890899686542
H        -4.55324944108456   10.51014846224498   16.17427813535822
C        -9.20100677150701   11.71347512363472   17.87839713787078
C        -6.85274474990396   12.54785520507718    9.75302702209867
C        -7.68382301185892   11.32342810743633   10.16825868622593
H        -7.70495577815811   11.21358521812257   11.25648706998945
H        -7.25802235306099   10.41667604395125    9.74204803376196
H        -8.70839685647139   11.42981228981840    9.81322232157478
C        -4.54223438734839   12.67208933118218   16.38781331191813
H        -4.54636441580580   12.48947028704619   17.46042461207582
H        -3.79181098160920   13.43234515435440   16.17432374606416
C        -8.75400021892416   15.87666202606039    9.85778072499408

