43
CSD_code = GUVMER | q = 0 | S = 0 | Stoichiometry = C18H20BrFN2Pt | MND = 4
Pt        4.29429197067156   11.47206018967151    3.52095794949745
Br        5.79864463092571   11.71601176212492    5.30532273773873
F        -0.77800202592129   11.56017303963620    2.93155639312896
N         2.95061432381391   11.50709614762236    2.11521565527747
N         4.42953491778932   13.72772582785968    2.91107947900232
C         4.30767411718192    9.47570910884018    3.47757751441972
C         5.52544988768495    8.85740212851679    3.22494832758548
H         6.43440663219857    9.45003989194064    3.19342089325739
C         5.62858862266402    7.48398580345662    3.03335885938808
C         4.47080102642358    6.72099574484148    3.09323854063317
H         4.52099221410590    5.65277185178922    2.93778874457532
C         3.25560188855884    7.31586870499793    3.36861810711383
H         2.36047091333030    6.71098357746706    3.41578922376969
C         3.15380988379875    8.69351081305979    3.56068701779958
C         1.83269992210400    9.23668903300161    3.93107452625748
C         1.15641761887699    8.60569563762849    4.97556872228700
H         1.66744342804034    7.82261699275793    5.51444863850246
C        -0.12810913251857    8.95975903559088    5.33764695130311
H        -0.61989633551679    8.45923841447152    6.15719978752213
C        -0.79386288252375    9.95463865938976    4.63899611355426
H        -1.80159401581711   10.25004172728492    4.88266896452374
C        -0.13124278443782   10.57793176370802    3.60677850933448
C         1.18570864466390   10.27482247401981    3.23607754674752
C         1.74559808113791   11.07536979462248    2.16289440357659
H         1.03278137992959   11.41261111793402    1.40635079942780
C         3.31351648590859   12.46892078042915    1.10203327223658
H         2.54130085851708   12.55018599584758    0.32484786274053
H         4.25210966125608   12.15739085807735    0.63281838343294
C         3.48521626912561   13.83062635409681    1.79722373322526
H         3.80570054238447   14.58619328637750    1.06481710991105
H         2.50913839334609   14.13010424477006    2.19206120534708
C         6.96152679444103    6.85959787520238    2.75533356167365
H         6.92934963210747    5.78497823086575    2.91705277569004
H         7.72573116167894    7.29156729137174    3.39776997571301
H         7.25315356094370    7.04117327613751    1.72034541454484
C         5.80578668058940   13.86660536277057    2.43920200712050
H         5.96366109723348   14.83993115018115    1.95453957658748
H         6.04583254630120   13.07688728226977    1.72562655837862
H         6.48812446998274   13.78181256296629    3.28382566102557
C         4.15985162199029   14.73161277003492    3.93328869565060
H         4.85582098296343   14.59338477936359    4.75994986937783
H         3.14614609694810   14.61076800967491    4.31582267000810
H         4.27351021711132   15.75101064733231    3.54107726111340

