74
CSD_code = GUVMAL | q = 1 | S = 0 | Stoichiometry = C32H36ClNiP4(1+) | MND = 5
Ni       -9.01153036258040   -4.73402040485019   14.86932464539458
Cl      -10.34717630120244   -2.79400777227055   14.65901488667648
P       -11.05280744742097   -5.21462490339131   14.48219242907572
P        -8.20999990331054   -4.60833902694008   12.80561921115735
P        -9.62929684048274   -5.78143736831351   16.66910498945500
P        -6.95634559591991   -4.18987591563705   15.19201395011475
C       -12.09489467148398   -4.90006930986795   15.97219018311759
C        -7.42316360629945   -2.92897826382041   12.81773682194745
C        -6.75539217595432   -2.66732640447030   14.17757979039599
C       -11.17728111410050   -4.94767247605647   17.20332329875506
C        -5.92936998383200   -5.33547292698431   14.16573734064996
C       -10.36485185019147   -7.37108884316151   16.06437457391620
C       -10.97758109093895   -7.08719347263993   14.68864531241051
C        -6.65844914489642   -5.61547289701105   12.83864967328191
C        -8.62988983886488   -6.13815997161108   18.13076291298810
C        -6.10717106833793   -3.91807306042804   16.76085483737196
C        -8.95902570607678   -5.72281148723478   19.41523603345199
C        -6.88607547030836   -3.34025078103924   17.76140352211618
C        -8.07747096098025   -5.96106521113514   20.45525251873629
C        -6.35880141255984   -3.13390027982479   19.02032741982185
C        -5.05390431124481   -3.51840014487866   19.28782466339484
C        -6.86989589989023   -6.59672605228529   20.21890486007060
C        -4.27924979301111   -4.09873787100854   18.29664888423838
C        -6.53330029859027   -7.00093971059497   18.93598240115986
C        -4.80014982547766   -4.30390200006272   17.03116181379151
C        -7.40736895738211   -6.76392628015659   17.89469605345712
C       -12.05655576795620   -4.96892155963128   13.00579767128245
C        -8.90333689111550   -4.69359114804304   11.13996930643798
C       -12.89782300713467   -3.86544733324477   12.90198229098705
C        -9.85683575828444   -3.73058728110181   10.81073679667022
C       -13.67239219789102   -3.69835933190176   11.76889281264874
C       -10.45139806916264   -3.74512042681114    9.56449773166381
C       -13.60355461996072   -4.61859520113533   10.73505576002523
C       -10.11515440871682   -4.73051856981149    8.64913229942847
C        -9.18973999855357   -5.70528126495932    8.98447796003108
C       -12.75107418282856   -5.70695726533868   10.82894826418081
C       -11.97365871907582   -5.88223345373896   11.95802902453985
C        -8.58612770868338   -5.69543267381825   10.22970716707760
H        -6.96053094313320   -2.68204684142212   19.79383860360265
H        -8.33293445498508   -5.64427135729401   21.45493245470714
H       -10.57857706780184   -4.74190480040242    7.67463974613773
H        -9.58514213447520   -8.13486833025122   16.01447397814568
H       -11.97414917535128   -7.52083679343374   14.58001306321141
H        -6.92227770240476   -6.67330764511458   12.75742735993133
H        -4.95736797715389   -4.86598997022148   13.98959150285799
H       -11.63969725654216   -5.47849781708721   18.04004325226308
H       -12.59469252199575   -3.93411296042788   15.88867330563275
H        -6.70545982302408   -2.89075710259855   11.99250341943901
H        -7.24539741008467   -1.84381226932803   14.70480529499701
H        -5.58900311335646   -7.49043254190473   18.75249187329497
H        -7.15352603875879   -7.05483884616489   16.88133346564932
H        -9.89236284124822   -5.21507480182635   19.60555457283330
H        -7.86655550154099   -6.45944814891158   10.48585373511790
H        -8.93481017909306   -6.47616570801068    8.27292141432268
H       -11.17942701336237   -2.99111988495999    9.30755361513292
H       -10.13356791459182   -2.98045094086627   11.53921358443723
H       -14.20985456185027   -4.48541071542222    9.85225603965118
H       -12.68870347545313   -6.41870459887249   10.01992756336347
H       -11.29967569267739   -6.72395591093836   12.01994756235850
H       -11.11149506028076   -7.70275654279233   16.79167565140046
H       -14.32979159003934   -2.84590146762389   11.69189587661990
H       -10.34072056176130   -7.49990173339584   13.90153585717029
H       -12.92865246972415   -3.13475126770571   13.69606617107892
H        -6.04252341738099   -5.35351899247300   11.97377598640081
H        -4.19124927923091   -4.76013987163665   16.26509706759061
H        -5.75983122658422   -6.25822337543187   14.72677807050305
H        -3.26338478503979   -4.39472748390509   18.51058420666849
H       -10.92276511736287   -3.93372946109924   17.52749397249345
H        -4.63934298623679   -3.36604979806497   20.27234113215489
H       -12.85801078510210   -5.68302427183287   16.00519266113891
H        -7.91035993090980   -3.06391754871917   17.53145254080097
H        -8.20049945888717   -2.18740889274796   12.62176439194240
H        -6.18626764258894   -6.77322579246277   21.03474755506322
H        -5.69249792937149   -2.42649716926570   14.08291333998595

