43
CSD_code = GUVNAO | q = 0 | S = 0 | Stoichiometry = C18H9BF5MnN6O3 | MND = 6
Mn        5.26451788706456   16.90499172573579    6.99831686507104
C         6.74355916978592   17.84888227589443    7.31637579533868
O         7.66486393203849   18.49774704687054    7.53485673711961
C         4.52863504732296   17.58515145637243    8.47353479234041
O         4.07114440020398   18.06608694672310    9.41101688654950
C         4.59361516113575   18.26157778022677    6.05528186967837
O         4.17615022461046   19.16898237860915    5.48953907199724
B         5.14652910163124   13.78488645076426    6.18358853123412
N         5.89841523443134   14.68484522560512    5.18756584099975
N         6.03644851743651   16.00001976707994    5.38577604479155
C         6.72154537046513   16.49230594878616    4.36209463131834
H         6.95871268627750   17.53868831515191    4.29979491621179
C         7.03933796748281   15.47055051928792    3.47012551141594
H         7.58303782960479   15.54742350420728    2.55203921700208
C         6.49662899568211   14.33839476441561    4.03381877674141
H         6.50633319385863   13.32833879471327    3.67867123115449
N         3.73021034214039   14.36951412439281    6.38680166711937
N         3.62220841667636   15.68351792066619    6.63781613758985
C         2.34740847950818   15.93319906438567    6.91224634553214
H         2.00747866307162   16.93035202258323    7.12402627774892
C         1.61270636101108   14.75127531365537    6.87050538159196
H         0.56646744818121   14.62324652654557    7.05294741594884
C         2.53578286070573   13.78012811941434    6.55158079217300
H         2.40173556603091   12.72335843419232    6.45066925860018
N         5.76724771138556   13.98501365468786    7.58450091654469
N         5.96533349342767   15.23884024124311    8.01800907381247
C         6.36873394599426   15.16458908112657    9.28083355451273
H         6.61603887349623   16.04801279521594    9.84036785873369
C         6.40414591784483   13.83421503091157    9.69017519671887
H         6.67907876407574   13.45111002231832   10.65034908869003
C         5.99612999848687   13.12050551080680    8.58524621760736
H         5.85009337120335   12.06624662317684    8.47241425784859
C         5.21779599405631   12.26598823345249    5.60233399834331
C         4.29131844320223   11.76522005554516    4.68965263916930
C         4.36458402642798   10.48220176713606    4.15365475047804
C         5.42340640359902    9.64985212389402    4.49621149944499
C         6.41482346826501   10.14300529806096    5.33613894194699
C         6.30629449318487   11.43144094826776    5.85203905284246
F         3.29529322157523   12.54450140124876    4.24624381658802
F         3.42807413307137   10.05849326662486    3.30173802673756
F         5.50517803775212    8.41634169835596    4.00072676478242
F         7.47511544361680    9.38915332319977    5.63571408156416
F         7.34004140297707   11.87500449844889    6.58056026836471

