98
CSD_code = GUVPUK | q = 0 | S = 0 | Stoichiometry = C38H57CoN2 | MND = 5
Co       33.86261043143979    1.64407654185053   -0.90231558826852
N        33.43252097724900   -0.11487653302847   -0.60532793323738
N        33.18611713568779    1.88759930821292    0.87725261847515
C        32.79220873691512   -1.67437379482677   -2.38379860634577
C        35.80901404152161    1.65708480197105   -3.05871255121654
H        36.00444050780802    1.59796577424039   -4.13433405432118
H        36.27967337491723    0.78377663835050   -2.60094105865073
C        34.37911426938330    3.20098214594983    2.53871765263550
C        32.31714298571217    4.05310369445078    1.56039034356202
C        32.66856425409081    0.78332094212976    1.37261990981792
C        31.15036911210054    3.88933824320746    0.61294368829123
H        31.42571605018124    3.12514453923493   -0.12455069011865
C        33.28797595679129    3.04480383800820    1.66841511539573
C        35.64180191955329    3.27270356659968   -1.20811861619199
H        35.73608425844812    2.38515059359721   -0.53436635731274
H        36.05437571077644    4.13400886542054   -0.68493839129581
C        36.42239199543283    2.93729061004378   -2.48353252126542
H        36.27434923399049    3.75664930609835   -3.19822773524028
C        31.43572477721014   -1.02299838475507   -2.54051844240073
H        31.40994587042003   -0.12982464243284   -1.90591346220485
C        33.73352724377234   -1.19132292811524   -1.46260241776431
C        34.37080723513661   -3.36231118675683   -3.07182218955304
H        34.61125560719515   -4.21857958414227   -3.68483302316678
C        34.18722141799413    3.52074185823242   -1.51545202742591
H        33.76380645222051    4.46478852305419   -1.19118792903135
C        33.13162998927830   -2.76151806420497   -3.17598180081184
H        32.41274126719547   -3.15205270292361   -3.88042391279161
C        35.01279493581195   -1.76880207246299   -1.38367526934640
C        32.78348232814876   -0.34615023620717    0.52508824675750
C        37.93220581025583    2.78302711074327   -2.22446007663042
H        38.07250022073060    2.00952055675591   -1.45980683877799
C        30.31070350277908   -1.96766816810448   -2.10976597482468
H        29.34917773992008   -1.46485434264783   -2.19229102565217
H        30.44161275799589   -2.29277681718271   -1.08207878814153
H        30.29003872434212   -2.85057872752163   -2.74487660533669
C        32.28077906837254    3.15830192101202   -3.16946766007507
H        31.63779926955812    2.28723675359053   -3.27393448603628
H        32.46020188429375    3.56314197849281   -4.16740167075848
H        31.76428228030896    3.91347990107346   -2.58251967675728
C        31.19956340469613   -0.58647406946299   -3.98942663100585
H        30.27706989598429   -0.01299583918126   -4.05990349758773
H        31.11236927630362   -1.44753259403760   -4.64759975822999
H        32.01930686416581    0.03140392067859   -4.34609637608398
C        32.26042292519187   -1.68694808089331    0.94778671797034
H        32.54214079728595   -2.45512389322252    0.23234999712610
H        31.17364585094335   -1.65719804774330    1.03079839717809
H        32.65151037548601   -1.96116188735864    1.92765007390047
C        35.30740607613754   -2.85700113603631   -2.18940411674817
H        36.27754329780269   -3.32439188992261   -2.12692204131366
C        33.60140024427052    2.79561965188396   -2.55139898216218
C        32.04738827909394    0.67337994700480    2.73259230488930
H        32.04202523672796    1.63851510426228    3.23337112522275
H        32.59878330952240   -0.03888434023047    3.34661595271244
H        31.02427617261496    0.30674747043825    2.65004597829149
C        30.82372856669474    5.18285870915138   -0.13553592040155
H        30.11460414031173    4.97823465275588   -0.93577359521085
H        31.72166947342857    5.61694700433992   -0.56971839180140
H        30.37283003937527    5.91926049989756    0.52552271083414
C        38.66661744174871    2.34585684846633   -3.49272222452934
H        38.33679026398758    1.36619393975443   -3.82581161983584
H        39.73787596622449    2.29515366999666   -3.30822664092978
H        38.49265454809309    3.06056738816094   -4.29467680130775
C        35.45273506272544    2.14065266883578    2.65415121785195
H        35.25322426458646    1.36272348874262    1.90920746357574
C        36.03623836541786   -1.20205608277388   -0.42484756503120
H        35.80137961479171   -0.13485329288321   -0.29697806475761
C        32.43631908864123    5.18542621604075    2.35095449090271
H        31.68668650870468    5.95953003211691    2.29362192557302
C        34.30186819682617    1.59836797090706   -2.85644936524022
H        33.82931708590614    0.92097115669941   -3.56543536402476
C        29.91005627917119    3.40522049267107    1.36880043144246
H        29.06847184362087    3.30931061430270    0.68565751832303
H        29.64179155557017    4.11362123355275    2.15063911888673
H        30.09068257790982    2.43797509993970    1.82832340087826
C        34.46526812441064    4.35483653776011    3.30300120720729
H        35.29533486244247    4.48407547550823    3.98133950023716
C        35.43272773725780    1.49331857979955    4.04114285304956
H        34.45321156829117    1.07845955195680    4.26251493053624
H        35.67198678576380    2.22560187538566    4.80898337205028
H        36.16698409214707    0.69164574943215    4.09143878519421
C        33.49861711679820    5.33826664976807    3.22187813123430
H        33.57345341602209    6.22428746438856    3.83534043120044
C        38.55901540269736    4.08345885142404   -1.71912829792295
H        38.17924266028692    4.36269926986849   -0.74015104095479
H        38.35584283871452    4.89669555618168   -2.41309685474784
H        39.63781488654094    3.96995159936397   -1.63432081693874
C        37.47048568625038   -1.31784176861850   -0.94252392860355
H        38.12915767316567   -0.68865710429848   -0.34647600381227
H        37.53945681083676   -1.00189626941156   -1.98101169416185
H        37.83354638791020   -2.34043653965412   -0.86855270628502
C        36.84219701767162    2.71935507498233    2.37488799441438
H        37.57724420368074    1.91796924997306    2.32955305391688
H        37.14300056190981    3.40957255183270    3.15925803970109
H        36.85407115796648    3.25292739405437    1.42884697539885
C        35.92999553362450   -1.87382846178863    0.94689594525595
H        36.69971423906236   -1.48873262338583    1.61312515080665
H        36.06120984070989   -2.95020272172644    0.85228565701071
H        34.96081917091948   -1.68089239663981    1.39605725287493

