77
CSD_code = GUVWOK | q = 1 | S = 0 | Stoichiometry = C32H28N9NiO7(1+) | MND = 6
Ni       15.65356804710493   15.16015618895036    5.78083529269331
O        16.41370725240370   13.61460472930424    6.65530765400777
H        16.22999415327968   12.90040632801960    5.90642963093780
O        16.07523356637991   14.15099675194248    3.87175223637325
O        16.08368596349826   12.07508687685947    4.66964204083971
O        16.25472267544697    8.40745177561846    1.45668361438906
O        16.08550131376284    8.77786236349941   -0.65404117024365
O        15.44852160213922   13.28782183130125   -2.23500199377413
O        15.52767055754941   14.90628938917540   -0.82286896260998
N        13.75166802102786   14.26978124041862    6.10959722989012
N        12.42529517983320   13.18765687173010    7.51148979912338
H        12.01642537430620   12.87447331838623    8.37704580595480
N        14.63168972333895   16.10687400898688    7.91769164919809
N        17.02411097827768   16.41098991627009    6.57560115416632
N        17.95874765615407   17.71994626012018    8.08639853262308
H        18.10169026500647   18.21999859901855    8.94911712708268
N        14.79404919626931   16.62789791746643    5.13055201896687
N        13.39248384436393   18.33101598313403    5.19442924994707
H        12.72080956824651   18.99312677556602    5.54851716595538
N        16.12982606788891    9.13252214074978    0.49874792102023
N        15.55769855692642   13.73114142751291   -1.11903302758610
C        12.98679561872363   13.39311443668836    5.37520309875530
C        12.91834232485984   13.17422310042610    4.00387649565974
H        13.52752380007159   13.75075763638917    3.32721090280482
C        12.04181545031993   12.20635907400151    3.56272081001275
H        11.96584814696323   12.00089045448964    2.50617592213980
C        11.23796699773123   11.48274393570117    4.44797694821509
H        10.57108475078379   10.73195530966159    4.05443013152855
C        11.26648697698608   11.71253444568526    5.80871621111051
H        10.63288674191445   11.16492275387847    6.48804109160812
C        12.14861411118224   12.68199676456857    6.25869229896450
C        13.39086987040816   14.12480116777908    7.36267600511534
C        13.96398868941219   14.94358641897947    8.47935077593387
H        13.16802519730041   15.21271067937010    9.19461940948247
H        14.70371899570217   14.33369827463676    9.00560163975523
C        15.73676253012103   16.66214137926480    8.67764220847350
H        16.06021345731089   15.93600627825830    9.43092828983739
H        15.45677406263992   17.58508504364417    9.21102679514910
C        16.89944823809682   16.93829025498550    7.76978356898440
C        18.21738251659266   16.85686016951061    6.06052979787000
C        18.82133210248720   16.59720590760259    4.83622095343398
H        18.33479819717639   15.95236071263281    4.12002363662190
C        20.04333948209455   17.19076347606878    4.60399622979119
H        20.55146188715441   17.01707872156413    3.66858276505366
C        20.64922365203540   18.01748783468869    5.55565646969629
H        21.60725649675891   18.45805508716725    5.32888896218052
C        20.05948782627672   18.28499490585903    6.77539247232677
H        20.53367115653802   18.92214266518472    7.50460265829822
C        18.82980180048170   17.69153527360402    7.01594029572982
C        13.72684067265014   17.09625765003062    7.35191582286564
H        12.69116768403273   16.75046032082849    7.45731963173964
H        13.80637610006202   18.05589264990908    7.88522235318510
C        13.98703422103504   17.33679830299015    5.89241210884055
C        14.74689660222590   17.17857726481157    3.86765461289250
C        15.41559869239384   16.85013321292556    2.69273154175370
H        16.12570666112130   16.04143586639363    2.69345317592533
C        15.12270331078765   17.58405103437579    1.56347544831779
H        15.59912796116229   17.33345243404127    0.62851105511294
C        14.20881905191949   18.64185208952428    1.59595236352999
H        14.00936213677272   19.18899186695338    0.68830549087209
C        13.56134913256458   19.00605891301266    2.75940125115100
H        12.86607106955853   19.82988038338681    2.78695818358381
C        13.84225024098164   18.25850455881329    3.89333362575402
C        16.05098323024176   12.90414457914463    3.74041490106105
C        15.98133520746659   12.38018649788642    2.32193068502602
C        16.08644661064581   11.01875797932952    2.06821606321901
H        16.21920582667796   10.32417166968581    2.88517009729828
C        16.01890392785655   10.56089605180621    0.75935571044007
C        15.84788120115503   11.42958634040786   -0.30885688811773
H        15.80113444630440   11.05970735138066   -1.32352676511696
C        15.73910045010313   12.78465017232304   -0.03335923499791
C        15.80134619071541   13.26389528206809    1.26680503943126
H        15.70469409312205   14.32307952418346    1.45085454739289
C        17.76940378773262   13.43209166898456    7.00958970233517
H        18.44822723514884   13.65980208230370    6.18247687799249
H        17.92148151622867   12.39003732315141    7.30646221089599
H        18.01063209801646   14.07944407302404    7.85482057411101

