63
CSD_code = GUVYEB | q = 0 | S = 0 | Stoichiometry = C22H38N2Zr | MND = 11
Zr        8.38709765433814    2.37967987468714   15.26495604283444
N         8.05362908199422    4.41932801013999   15.95674488269094
N         6.46585799461439    3.35175101967979   14.85811239243554
C         7.17036587283913    0.99380639288799   16.97138076013609
C         7.95958122881593    0.12312989074256   16.17167944650197
C         9.32848442536103    0.42922885573242   16.42264771114787
C         9.38105801769160    1.49854235026183   17.36027314200722
C         8.04675349233029    1.84564888315093   17.69386848753689
C         5.68525888517357    0.94447232188623   17.20898781265561
C         7.48960657147360   -1.04757096890625   15.34622231463903
C        10.49890606198560   -0.39036246679582   15.94865920431593
C        10.64284549065576    2.05938185106770   17.96528270204445
C         7.58539443436664    2.83819235367897   18.72596429122803
C         6.89514829068560    4.52187740281861   15.31888828309307
C         6.15486549079212    5.83599695709205   15.19655123835330
C         8.72845729831144    5.54459649769885   16.56987411530670
C         9.34579932192765    6.51716766985408   15.55735858648889
C         5.38146397573573    3.12613685792318   13.90770113795435
C         3.97861204129739    3.52633842350707   14.41625852665084
C         5.36755949656905    1.60102527035201   13.67563510898660
C         5.68498726764901    3.82595399756262   12.57252736080151
C         9.67597829650513    2.96151664206225   13.25945526432653
C        10.42070293379756    2.99103972157187   14.55102034693063
C         8.86302534455168    1.70678691930003   13.17317356098754
C         9.57032747443528    3.99859010257506   12.40949451185271
H         5.48558472189913    0.79730699417385   18.27293437286844
H         5.22379444135661    0.11814308612101   16.67133274826505
H         5.20041904646844    1.87651861057253   16.90840266091879
H         7.93449110644854   -1.03481731958757   14.34778020152613
H         6.40667800459177   -1.04672094853067   15.23661364598035
H         7.77684826316924   -1.98727590214465   15.82498054483158
H        11.43211030881904    0.15958629593685   16.05839593289597
H        10.38712843349104   -0.68295795315507   14.90350026635477
H        10.58030670950344   -1.30768483454977   16.53871796962505
H        10.40850999584339    2.77580277480620   18.75047387886866
H        11.25899055589823    2.56098387782893   17.21330455465278
H        11.23615810395438    1.25947249645222   18.41292456143113
H         7.24155584991363    2.32139866608415   19.62668301790013
H         6.75362461545550    3.43560629851984   18.34728610308109
H         8.38701656741406    3.51587765122728   19.01366610274117
H         6.37857204732242    6.47373867299603   16.04914662881066
H         5.08303060362276    5.68268898489605   15.15751905405337
H         6.46940051489744    6.35367195970917   14.29178801355463
H         9.53819285769562    5.11994916208342   17.17773153618569
H         8.05828185453500    6.09905116347779   17.24818134536961
H         9.89519188121077    5.95193664330228   14.80787560869527
H        10.02753027536436    7.19786811549734   16.06242319508572
H         8.58411983675589    7.10472982390548   15.05270072111643
H         3.90748563599168    3.37532779990419   15.49184840184538
H         3.22744933414399    2.90499117830462   13.93375990724966
H         3.73626255542570    4.56085978979379   14.18835037727491
H         6.39279295123876    1.24832330056036   13.50828417024437
H         4.75257019456356    1.35489000151254   12.81207193125993
H         4.95493732023624    1.09943318179878   14.54792579159755
H         5.61486761814114    4.90584277501779   12.67052676309922
H         4.98101616245094    3.50648462032205   11.80728777547984
H         6.69815434312785    3.57457181130941   12.26010538128977
H         8.27707220299937    1.66612968130577   12.24348892922971
H         9.52185479612340    0.82049893698986   13.21083811288763
H        11.12372212482507    2.14504978503810   14.61284302043651
H        10.96332235578604    3.93190931142143   14.71156744850647
H        10.11262278365659    4.92058136146896   12.55952772200332
H         8.95246658175661    3.95657731510339   11.52409437088355

