86
CSD_code = GUWHIP | q = 0 | S = 0 | Stoichiometry = C40H39Cl2NP2RuS | MND = 9
Ru       11.18337209400073    1.42643384643379    0.39107086952712
Cl       11.00807147508138   -0.87646591867766    0.84507158814528
Cl       11.60369916938852    0.92264321284724   -1.87275036793844
P        13.45376332689053    1.31044836124120    0.52631643639557
N        14.03207772982735    2.00200727892767    1.95107874271050
H        14.88580920324987    2.56432820256607    1.86934280332065
C        13.81522011783457    1.50673978158674    3.22258232954252
C        14.34893835604895    2.18627936257189    4.33096187819021
C        14.11807921157366    1.70973109944356    5.61711956669841
H        14.53647290510004    2.23696741217419    6.46335917061123
C        13.34941327793678    0.57894429760902    5.81383936959650
H        13.17082420434676    0.21782684285477    6.81516955311326
C        12.81717560594052   -0.08972067378183    4.71991254958098
H        12.22355287061962   -0.97893390228169    4.86607972704237
C        13.04910524072076    0.36335283730801    3.43718596382825
H        12.64752591398846   -0.16814408171144    2.58320155683749
C        14.32994029444814    2.37827365631818   -0.65455901544663
C        14.76936853963183    1.85417014839167   -1.86546923702482
H        14.59882079110457    0.81132345889865   -2.08727413142275
C        15.40832343309887    2.67171813372203   -2.77952545979829
H        15.74721590820179    2.26126987705348   -3.71887057988648
C        15.61499240851047    4.01113072172969   -2.49330279528413
H        16.12065069278674    4.64563771746296   -3.20604371776312
C        15.16670307318846    4.53855454924711   -1.29403370655336
H        15.32008238159905    5.58467083133598   -1.07110165488869
C        14.51627216733787    3.72898975984935   -0.38167760961132
H        14.14556446168129    4.15001337130034    0.54241912777450
C        14.35714456836261   -0.26536589886881    0.34552174314426
C        15.54905974885769   -0.45476086596701    1.03967897837247
H        15.93302324670637    0.31619640109768    1.69271981020564
C        16.25138038213749   -1.63623551011786    0.89085485677843
H        17.17411743147152   -1.78148851387996    1.43335984212241
C        15.77424508269723   -2.62873114974400    0.05039225456909
H        16.32401884392916   -3.55222086142347   -0.05892460284012
C        14.59456963503592   -2.43654574375473   -0.64937506526776
H        14.22276982675578   -3.20786359106736   -1.30699055943928
C        13.88348033228300   -1.25885755267054   -0.50525651776112
H        12.95966412378374   -1.10616011267395   -1.04532747770745
S        16.85244263707589    3.39614787167674    2.78101589403506
P        15.36989873640763    3.66294310315925    4.02396420124701
C        14.16077390266343    4.91963147474168    3.47952342907139
C        12.90113599659196    4.98468515783301    4.06492093356977
H        12.64972816784497    4.30407942882810    4.86802939695773
C        11.98821927648613    5.92334811781612    3.62027203476642
H        11.00734708364068    5.97648739766469    4.07000488351862
C        12.32964460731234    6.79384601725284    2.59559283932621
H        11.61104898853762    7.52228276001015    2.24913831868076
C        13.58822359248569    6.73489652446280    2.01941199899425
H        13.85311676048355    7.41676735838714    1.22480031159991
C        14.50562001292550    5.79670589940474    2.46051393708582
H        15.49327233548914    5.73082645305176    2.02276335954388
C        15.95208732624941    4.21856370024890    5.65765076074283
C        15.51742778180833    5.38815281385540    6.26566686992943
H        14.75658643399385    5.99602735852924    5.79635345662601
C        16.06577405535001    5.77020478407065    7.47815255446989
H        15.72985700465327    6.68007118845215    7.95348991991497
C        17.04258509980510    4.99389084337700    8.07868807785256
H        17.46598861801105    5.29830075150661    9.02415995006840
C        17.48448575545397    3.83146758843855    7.46511628380673
H        18.25169570162959    3.23042114956725    7.92972356601961
C        16.94634098131182    3.44708923753475    6.25265449959436
H        17.29094952875802    2.55281127139760    5.74956189982046
C        10.14595468773736    3.40860021559225   -0.17326342146682
C        10.95397179995764    3.62335780372298    0.95508896850760
H        11.65436608205584    4.45028086026945    0.97306243338965
C        10.79677332223587    2.83032965601678    2.12365566490397
H        11.38911072766413    3.05917242866158    3.00297764258725
C         9.82631979779254    1.81822648711493    2.18334392691260
C         8.99470020460499    1.61445362061011    1.04284226433559
H         8.20819186211509    0.86833214341167    1.09373629999731
C         9.15406540551412    2.38681243625716   -0.10434830583656
H         8.48712937908526    2.24370531215256   -0.94843919551693
C        10.18421010940388    4.32523241761390   -1.37262570212521
H         9.61268364567293    3.85119057639214   -2.17834636104819
C         9.49963300092881    5.64619742976499   -1.00152224171883
H         9.46900204780721    6.30342059706084   -1.86672939845783
H        10.04754685779330    6.14762872406762   -0.20562636936086
H         8.47970560750220    5.47305020337048   -0.66275075962685
C        11.60112930257976    4.56758849152579   -1.88800115351322
H        11.56376309160983    5.13201822855190   -2.81633717624289
H        12.09407919807822    3.61710518780068   -2.08370007716441
H        12.19492908177280    5.12968748160872   -1.17118203618088
C         9.60558871499978    0.99717635255920    3.41553229949404
H         8.56704461098508    1.06999471409750    3.73845429505869
H        10.25785053769595    1.31837388267979    4.22487984583406
H         9.81829246332035   -0.05044028752423    3.19287296054941

