92
CSD_code = GUWHOV | q = 0 | S = 0 | Stoichiometry = C42H43Cl2NP2RuS | MND = 9
Ru        1.80865053719197    2.91861012711354    1.32670784595921
Cl       -0.31104759925185    2.18182851002755    2.07959016868356
Cl        2.62888965092698    0.76342773083942    1.84798504187107
P         2.19749750116863    3.65632315780423    3.44711162256833
N         2.02567892834150    5.31568037295604    3.75757507996980
H         2.88874473794243    5.85208670381225    3.64230764077663
C         0.87982155755546    6.06096823470404    3.56395489687082
C         0.91215554492915    7.45154704525361    3.76699201851394
C        -0.23226699745881    8.21419253652126    3.56197804917908
H        -0.18795041379408    9.28586700743253    3.69900605927654
C        -1.41833648176281    7.60537299078439    3.19998878218620
H        -2.30421761876320    8.20241453883639    3.04576000357212
C        -1.46365227584003    6.22591185973593    3.04621472110721
H        -2.39010309750664    5.74246524546013    2.77627634163786
C        -0.32988436015375    5.45913041885549    3.22283217527997
H        -0.36122585254383    4.38561339496665    3.08532384798832
C         1.28433530243718    2.91158856020132    4.84215289903612
C         0.71969541679224    3.66828361121785    5.86173024820798
H         0.77146273227320    4.74588045379072    5.83338766139635
C         0.07821136977005    3.03946838387397    6.91363335612064
H        -0.36700239048716    3.63244217522832    7.70021711071344
C        -0.00168866288979    1.65814249200903    6.95683303371252
H        -0.50975070077817    1.17230163561360    7.77726284900474
C         0.56604104506561    0.90142040491663    5.94472318903214
H         0.50303273625987   -0.17608901040453    5.97319259328568
C         1.20848280110407    1.52316158905820    4.89071158851638
H         1.64403519201987    0.93814754711863    4.09220659745315
C         3.89737036371519    3.51268475783226    4.09209127156976
C         4.85392766603960    2.79278714130423    3.39096669997654
H         4.56551810635738    2.28685579871693    2.48045802577084
C         6.14653047652633    2.69971381999730    3.87766028932012
H         6.88942286008388    2.13954925089614    3.32901530580921
C         6.48420898580780    3.31988944338987    5.06833176028761
H         7.49323594451010    3.25020106353349    5.44767202607311
C         5.52374239570842    4.01963894380385    5.78255098702000
H         5.78046436094461    4.48852873723760    6.72127203508003
C         4.23244150362956    4.11475979485178    5.30144179897848
H         3.47922240702641    4.64578571010869    5.86567567039210
P         2.48686777487824    8.21388300250274    4.26145926126119
S         3.95387449765752    7.94522075647211    3.00258127495291
C         2.82551926951193    7.53976202702060    5.92360519777319
C         1.79997755430866    7.08867551797957    6.74646381806159
H         0.77443045317523    7.13309164440801    6.40386907306628
C         2.10212987896833    6.58138725431795    7.99699627301740
H         1.30969060933396    6.21844401236350    8.63461214022362
C         3.41774828331418    6.53709628561393    8.43091631997050
H         3.64685418990327    6.13999003841294    9.40853037829493
C         4.43760945672077    6.99764716903609    7.61400880886874
H         5.46179452491218    6.96952678094520    7.95523502509794
C         4.14385550500420    7.49184631447420    6.35636857694096
H         4.92964410263883    7.83369110750872    5.69592647954031
C         2.11614995348784    9.97516722688226    4.55264580937528
C         2.49424457171608   10.89482714718128    3.58304214045509
H         2.99852017677894   10.54566973174270    2.69194692228624
C         2.23269996400167   12.24003477985280    3.76935499409773
H         2.52483244241022   12.95466189146311    3.01444418793599
C         1.60064928168405   12.66674797789555    4.92562280534394
H         1.39950478100993   13.71723206152060    5.07415335941734
C         1.22965593797476   11.74933451609435    5.89646813685981
H         0.74105771032257   12.08518241209313    6.79922728819162
C         1.48491755248722   10.40274030593094    5.71551771869885
H         1.19745003874175    9.68550776137025    6.47110218587642
C         0.75405464730076    4.11691805931582   -0.32583922949137
C         1.02119935742272    2.79068477444898   -0.81340179494259
C         2.34169752273699    2.31716574734248   -0.87794461650750
C         3.39595713309521    3.08523037862867   -0.28751742571019
C         3.14620167556560    4.39602817594135    0.18978128674710
C         1.81161968397410    4.92918537642431    0.14304722576475
C        -0.65963846451817    4.61910487672779   -0.43703044643765
H        -1.27739538139343    4.13406994099151    0.32152540415107
H        -1.06582222525580    4.37354825956407   -1.41696436516422
H        -0.73317683846089    5.69219472815908   -0.30181589844744
C        -0.12230174825869    1.95223430118920   -1.31827070328574
H        -0.36814719810553    2.21483631082875   -2.34947372974195
H        -1.00221359839499    2.10464882265022   -0.69741822695152
H         0.12035852337457    0.89417303076501   -1.27133301706978
C         2.67438839965931    1.01910828247501   -1.55819722539794
H         1.93104723447652    0.76403168763299   -2.30831122356746
H         2.72154040989391    0.21252991976456   -0.82265474612273
H         3.64222437137200    1.08474309872300   -2.04947109564959
C         4.79364625537526    2.52691678580789   -0.31598089920077
H         5.21580355892871    2.62029864916364   -1.31895823769519
H         4.77865399466288    1.47304999444738   -0.04234980859770
H         5.44710113386742    3.04502041507953    0.37836244099838
C         4.32920058571936    5.25233143046138    0.56605196010567
H         4.77778192486503    4.91579499206127    1.50171052276717
H         4.06850558010057    6.29629501105862    0.68861212725341
H         5.08557105502208    5.19227490265008   -0.21581440056212
C         1.57516522150038    6.38348099627767    0.45565387726585
H         1.71156930949960    6.97041352199635   -0.45530131076273
H         2.26786198153435    6.75769359779902    1.20293224224762
H         0.57417371058558    6.56094402908131    0.83568184620794

