64
CSD_code = GUWJUD | q = 0 | S = 0 | Stoichiometry = C28H31ClNOPPd | MND = 4
Pd        4.14964357339973   -0.00682496561433    3.03140807217894
Cl        5.52408371677469   -1.44162144675395    4.23679909192936
P         4.82372351650638    1.67039398510977    4.34312404903034
O         1.87119112924687    4.21686709842059   -2.16642945080023
N         3.46484211974738   -1.46520169207605    1.78511108877939
C         3.28442413691320    1.16401684272838    1.64273696397283
C         2.97931444527305    0.39928900279338    0.48609840978013
C         2.56821084190688    0.99597116533274   -0.69923352004458
H         2.35062623331266    0.38786006890386   -1.56779554888057
C         2.44169125694996    2.37986265155720   -0.77030134022469
C         2.71740927120533    3.14427622393337    0.36919392022915
H         2.59943806015740    4.21628396337873    0.30334242386810
C         3.13308745570709    2.54639006628616    1.54275198796100
H         3.32883433774718    3.17806296749279    2.40208830898834
C         2.01834464670061    3.02946033829066   -2.00827271033647
H         1.83021223992508    2.31951189538060   -2.84103013223459
C         3.03295198811648   -1.03451723173235    0.66397517464439
H         2.64878616535052   -1.69243756368587   -0.11527650398538
C         3.36201885621271   -2.82022856424075    2.25537990034167
H         4.35822486069231   -3.10534418210670    2.62588802639298
C         2.41079116460866   -2.77703585526781    3.46684044073734
H         2.76366987485262   -2.00560958237476    4.17500407318524
H         1.40965131262813   -2.49852665919572    3.12096891547304
C         2.37182756569964   -4.14062492072130    4.14457849418304
H         1.68466146354614   -4.11162234822165    4.99233699102419
H         3.36695257025608   -4.37742516016330    4.52556683992380
C         1.93125511151970   -5.21260804212055    3.15119976587611
H         1.93790550716689   -6.19116319478291    3.63446090120195
H         0.90787078575189   -5.00769610940351    2.82648819523373
C         2.85282008537344   -5.23257141996918    1.93455602438981
H         2.51475381900915   -5.98971352749477    1.22401515969835
H         3.86409898004488   -5.49743890234736    2.25054074970824
C         2.87981303225090   -3.86577834830985    1.25284416695972
H         3.54686101261788   -3.89608628966154    0.38730307371879
H         1.87239506480602   -3.61712703553718    0.90724350448330
C         5.84165259456950    2.74507169411097    3.27617772138681
C         6.50210083640250    2.06581469046768    2.25197889890154
H         6.36633372673141    0.98099097649255    2.15422292065197
C         7.31273202784667    2.75274286308776    1.36894179850772
H         7.82485812581058    2.22398978618048    0.57869359396998
C         7.45908021577529    4.12582276366724    1.49373921281974
H         8.08458595888938    4.66689653445709    0.79962684291649
C         6.79585530656906    4.80565451502531    2.50086765137363
H         6.90277927582008    5.87681999829981    2.58972245912605
C         5.99036079431861    4.12005332981305    3.39464332563565
H         5.46350969713318    4.66254538867043    4.16531408891717
C         3.44974853150612    2.61731642379466    5.07230507636196
C         2.17211303908840    2.11521007207190    4.83657980766923
H         2.06670560541077    1.21979635143411    4.21747540696474
C         1.06359666186888    2.73829133077374    5.37891179375030
H         0.07528254431352    2.34613493557859    5.19060067653442
C         1.22413746289171    3.86619806786607    6.16776800886807
H         0.36070533306211    4.35886321292713    6.58930007816346
C         2.49400424166584    4.35483812482756    6.42867945459576
H         2.61882159082758    5.22356943110159    7.05854083549651
C         3.60591394614396    3.72983632790812    5.89225427261585
H         4.59233053618997    4.10324273737915    6.12700951335279
C         5.94628177007837    1.44286834591923    5.78710137384473
H         6.80243625389126    0.86103935151752    5.43318294418120
H         6.30207934296426    2.42831490622435    6.10631362051094
C         5.24250568193546    0.70545464129071    6.91859231355727
H         5.92953658405748    0.53520720337789    7.74458363489688
H         4.89151279219079   -0.26094294716155    6.55894589887657
H         4.38835332005569    1.27351571511587    7.28532126811352

