86
CSD_code = GUWJEN | q = 0 | S = 0 | Stoichiometry = C40H39Cl2NP2RuS | MND = 9
Ru        2.68479671443393    4.10689654839723    1.97820584473502
Cl        2.21595720251836    6.07818012079397    3.17990076366285
Cl        0.36241534007729    3.86633640453533    1.69088398371469
P         2.60794207814878    3.15777886587983    4.04244058022927
N         3.23170717248328    1.59409606803910    4.02467736816913
H         3.82538599074624    1.31729283743542    4.81352991453112
C         2.70266544287737    0.53484666067740    3.31505507149719
C         3.36240226210986   -0.70577155416506    3.31626142988879
C         2.85643857792839   -1.76324972778755    2.56641966789002
H         3.37019304579650   -2.71470107329248    2.57427207690484
C         1.71587783892187   -1.59729337390093    1.80548125798960
H         1.33582826802621   -2.42078441797857    1.22015633747219
C         1.06072574619356   -0.37307811386917    1.80669691204616
H         0.16204307077237   -0.23827198757357    1.22472518414968
C         1.54107732278356    0.67951763287704    2.55816401169264
H         1.01726903870401    1.62749421255894    2.57415637544219
C         1.09327552379414    3.06627154944201    5.05493099194176
C         0.96580952921355    2.04090790204758    5.98894603797775
H         1.74714982723194    1.30217800436367    6.10153608148251
C        -0.16505823377127    1.96938237611256    6.78055670925882
H        -0.26242025625868    1.17233659129289    7.50321784830455
C        -1.16831719131654    2.91599129525240    6.64808751298183
H        -2.05252214753445    2.85326967865490    7.26559652126964
C        -1.03729210171076    3.94150615528730    5.72662431469724
H        -1.81669676223227    4.68157133659990    5.62430380641329
C         0.09028578389729    4.02112339335289    4.92887120960604
H         0.19661790536123    4.81807448828915    4.20665370569491
C         3.79020502102814    3.92291294923624    5.18817628390203
C         3.36248756896776    4.95190333308734    6.02111868077746
H         2.32376040704996    5.24705143244327    6.00995236142702
C         4.26839948644095    5.59647413668909    6.84300116906788
H         3.93291404706402    6.39584630205060    7.48647863117296
C         5.60207226812425    5.22182994755243    6.84013156821713
H         6.30782591937111    5.72592041043388    7.48383222349551
C         6.03192142350496    4.20162096766963    6.00819134081683
H         7.07212319950103    3.90853677629156    6.00261834045763
C         5.13224654990780    3.55882303249276    5.17837712631664
H         5.47552926892124    2.77179345432523    4.52176461775388
P         4.86683999773083   -0.88948412375351    4.32636064900401
S         4.70407760778334   -0.30545926384923    6.18327570449379
C         6.14094401194192    0.00772353636101    3.37321068484722
C         7.06802487573815    0.79265604814490    4.04514026762520
H         7.02549979868994    0.84759849077592    5.12533816613974
C         8.02653649107527    1.48998138572725    3.32972385969306
H         8.74629706756069    2.10488311739405    3.84926165355242
C         8.06022727109086    1.39787581728845    1.94784834951312
H         8.80821832828891    1.94184071882227    1.39016331125237
C         7.13768271052442    0.60801819655684    1.27699375612717
H         7.16785442312740    0.53746642694604    0.19940315421752
C         6.17401164090512   -0.08586315175022    1.98577727994411
H         5.44608758355681   -0.70141547308651    1.47451595816393
C         5.32793382942117   -2.64708866613516    4.21989311017921
C         4.49573550178946   -3.54339476122613    4.88479649007130
H         3.60850889865872   -3.17017150108610    5.38013459459435
C         4.81117643811885   -4.88762161520401    4.91046972262908
H         4.16287880951638   -5.58402487439879    5.42087379930106
C         5.96475569978406   -5.33763177486712    4.28593583849905
H         6.21484669327090   -6.38775591523689    4.30896120863498
C         6.80174433224370   -4.44300129539558    3.64044470956960
H         7.70476672046484   -4.79436282593056    3.16316320559218
C         6.48949553958243   -3.09461277469415    3.60614170258456
H         7.14456289262166   -2.39604030729817    3.10426696767732
C         2.85731334792312    3.32063507309303   -0.19995354072362
C         3.67897329905530    2.53652508403107    0.62522244236989
H         3.60526002937004    1.45513819803723    0.59481104735304
C         4.64321408089230    3.15237659241597    1.46009828584269
H         5.31067261486035    2.52351032227896    2.04046219456089
C         4.87082519347164    4.54664887553969    1.43045063220425
C         4.03446819998119    5.32373420990616    0.59251404742522
H         4.19214819519026    6.39446052997842    0.52683693613945
C         3.04192629088315    4.73128079799159   -0.19913491887657
H         2.44731996012457    5.34259323837611   -0.86963577137869
C         1.82276527496239    2.69824145710928   -1.08241196197274
H         1.98741437410599    1.62771654606730   -1.18432418658415
H         1.82238191029929    3.16382318523103   -2.06672234425970
H         0.83709224829484    2.85273009241165   -0.63373953820771
C         6.06076430987348    5.13454433525041    2.15051797454875
H         6.39242755583119    4.40629956342041    2.89997132676633
C         5.73631320771704    6.44138762466119    2.87243822264285
H         6.56227514094777    6.71949176858952    3.52242108142624
H         4.84146681891759    6.32730409253745    3.48127981368790
H         5.57170376364758    7.25240667861070    2.16730551956370
C         7.19558201818741    5.33214502601017    1.13774919581862
H         7.44681279078510    4.38975770956950    0.65338360272340
H         8.08115466453610    5.71155754990253    1.64160490343249
H         6.90357539757071    6.04696141927423    0.37086702855456

