60
CSD_code = GUWKAK | q = 0 | S = 0 | Stoichiometry = C24H31ClNOPPd | MND = 4
Pd        0.78158722911365    2.58060555763874    5.98418991987487
P         2.60118300238533    2.56562699091652    4.68788495905534
Cl       -0.36156496877327    3.53730416675883    4.21263145024465
O         3.27916767355219   -1.91940964378575   10.85082234928334
N        -0.83536970276602    2.60516011389903    7.23523378023000
C         3.24508762490743    0.87565473197577    4.50529724414892
C         0.50773823433659    1.08452539730653    8.37351774133894
C        -1.89376970057007    3.56214021602294    7.05265745401241
H        -2.22453764656575    3.47480154872124    6.00707750942953
C         0.71957853160081    0.16298489980026    9.39132464433082
H        -0.09291335545488   -0.11757351141150   10.04909263287754
C         3.01605195861387   -0.01197234179722    8.70915691623891
H         3.99341670805235   -0.44636727865718    8.86306661248723
C         1.54177585857980    1.46950948165315    7.47967892172174
C        -0.74487875370335    1.78773122099241    8.21103480825578
H        -1.53618285613070    1.65609097129315    8.94874322704331
C         1.97908584834369   -0.40308636048253    9.56299227376472
C         2.79528012117650    0.89693684911571    7.69275918780176
H         3.62904309345854    1.16186590024904    7.05481834947129
C         2.63027555681244   -1.44933473171515    4.44414286297046
H         1.87857932085560   -2.22275852602340    4.49732964364369
C         2.27355723236145   -0.12094786156258    4.57229742880646
H         1.23132903908038    0.17063609964938    4.74248211187211
C         4.57773813467684    0.53280525221524    4.32030789749766
H         5.33591288787701    1.30212713586709    4.28239684059140
C        -4.11756210035105    4.52265732320523    7.61353963396832
H        -4.44945789951910    4.37788498563092    6.58318208816853
H        -4.99180589525508    4.43798943951595    8.26242889567653
C         4.93179470979713   -0.80054414987516    4.19987328243719
H         5.96860184796786   -1.07041869840484    4.06210236723105
C        -3.10460373452285    3.43791790292142    7.97453769498373
H        -2.79849305539260    3.56673645142148    9.01655615976837
H        -3.56298332740287    2.45149212127782    7.86569341357301
C         2.22347471716771   -1.38228533538928   10.61866156312308
H         1.32417031654159   -1.61346588434821   11.22746946480104
C        -1.24701431295072    4.94985771232043    7.21896031172643
H        -0.37054163550031    5.01636932804523    6.55348220869145
H        -0.90781703076453    5.06206511941799    8.25397562424899
C         2.48779298707726    3.12815793197965    2.93459274451904
H         1.62985494236250    2.60418926238156    2.50298392075307
H         2.22874555955126    4.19073904624994    2.96348678723249
C         3.96230532273756   -1.78790000012404    4.25844614492266
H         4.24584429076623   -2.82570115102526    4.16649667879446
C        -3.49610975290001    5.90941322943840    7.75571168169511
H        -3.21845827316817    6.07676151350893    8.79969955860311
H        -4.22791400671645    6.67053699452588    7.47935919146952
C         3.19917472317190    4.82636210228083    6.05990381133344
H         3.90355700281561    5.49278582108023    6.55396948442624
H         2.48102660915304    4.45257441597519    6.80859078380080
H         2.64756329727327    5.39690045759250    5.31102699953543
C         3.91688389612055    3.64523936181055    5.40688455780682
H         4.47740512704806    3.08527850816330    6.15803454249927
H         4.60886897591041    3.99143916924218    4.63615450785869
C        -2.25642171389245    6.03740744599330    6.87437417304955
H        -1.80019795028197    7.01975453556497    7.01142822184434
H        -2.53853321410358    5.94029143950532    5.82427042053916
C         3.73188214402187    2.88622453518636    2.09106945168586
H         4.60135278977752    3.39942606095020    2.49614555669323
H         3.56315698226097    3.25956793390312    1.08304266105395
H         3.95678658928517    1.82363879139830    2.02722864442628

