38
CSD_code = GUWKUE | q = 1 | S = 0 | Stoichiometry = C11H18N5OPtS2(1+) | MND = 4
Pt        1.80683376922519    0.27077416293670    1.60846263278425
S         0.88772274549990    2.25402535274928    0.94421958785254
S         1.36601485607291    0.60038608189288    3.80095368454854
O         1.79347233785736   -0.46151235310743    4.69656074210513
N         2.75542958382120   -1.60231473725573    1.64861475929973
N         2.16721034057971    0.02749138129986   -0.30689924292781
N         1.81307950403775    0.93563059243629   -1.23150055737774
N         0.85350177351628    2.97150365383011   -1.63056373060979
N         3.05947645197094   -1.31965832458382   -1.97239286215762
H         2.68904045039717   -0.65806475264889   -2.63642156435452
H         3.32526564227980   -2.23096961160565   -2.29622443815363
C         3.03224553007209   -2.36504954685788    2.69479418964626
H         2.72152450881343   -1.99105544286488    3.66348033304223
C         3.68702971729333   -3.58329489016632    2.57094996224731
H         3.89391246474221   -4.17297971311518    3.44827641059803
C         4.06458638098836   -4.01144974905250    1.30849715815000
H         4.57843125430894   -4.95051145895126    1.17506801249145
C         3.77394831460564   -3.21408796720661    0.21240989070946
H         4.06628336402744   -3.52798447986532   -0.77632599381091
C         3.11196864045538   -2.00455056375398    0.40546081708897
C         2.75967879459927   -1.08513911818179   -0.67721800295283
C         1.21895188003244    2.01282280834762   -0.78503252701791
C         1.15194060677124    2.87103247585963   -3.04036668857996
H         1.92234549351344    2.12169219878599   -3.19545971647694
H         1.50418411782440    3.83735828110274   -3.40096469605915
H         0.25744893144413    2.59079976434668   -3.60103401342995
C         0.13620182073313    4.15620360163076   -1.23391207209313
H        -0.26052477567062    4.04530580527507   -0.22784131919229
H        -0.69095544102375    4.32295293835135   -1.92493502338388
H         0.79557040706605    5.02715709583089   -1.25966467680117
C        -0.39208143375819    0.91532521632988    4.11659679434759
H        -0.95389033051522    0.03521014627877    3.81932528758629
H        -0.69659377286293    1.77338066928789    3.52738966737488
H        -0.52868698119478    1.09483474136512    5.17723588894508
C         2.05771720788833    2.15852306051831    4.41976378011453
H         1.77510917933063    2.27701713409836    5.45988380953624
H         1.67291080693422    2.96887750072837    3.81021049269108
H         3.13899585831980    2.10611804593382    4.33820322422066

