76
CSD_code = GUWNUJ | q = 0 | S = 0 | Stoichiometry = C31H40N2O2Zn | MND = 4
Zn       11.24584120019540   11.00370006201336    3.70732775258011
O        10.64154456247664   11.63802802390090    5.38964711531982
O        11.66905768857790   12.75082356204094    3.09939896073622
N        12.66925186048224    9.73593636899007    3.76092595618898
C        11.49735238206966   13.83897106878535    3.72172212765492
C        10.99133445263673   13.93931089578921    5.01877442763162
H        10.89868256828252   14.91551382927075    5.45154262886244
C        10.59585481995271   12.83973823440458    5.78244973180446
C        10.05087559264503   13.02390660438577    7.20797195659571
C         8.63305309242277   12.43715636646395    7.22130484200351
H         8.23137860886552   12.44244301695465    8.23224250946832
H         8.65167983298198   11.41420667275587    6.85434667297329
H         7.97465906010156   13.02293637571906    6.58235301179613
C        10.00459850103872   14.47008234214243    7.69562134224518
H        10.99724791850150   14.91394082834187    7.70993596072584
H         9.61330844919416   14.49008668196204    8.71123864210779
H         9.35107969321778   15.07673059375329    7.07315913333646
C        10.95396168243536   12.20333659379391    8.13844961896618
H        11.95823310534912   12.62275670902495    8.15755564212006
H        11.01381655978454   11.17684806608234    7.78615963224525
H        10.55627055687868   12.20675224824995    9.15095692306174
C        11.88802297414313   15.09583730667731    2.92761085579517
C        11.00211477401307   15.11502121707086    1.67438841481598
H         9.95760546548969   15.24736908596732    1.95094929358255
H        11.10171809248314   14.17615429810972    1.13572322312640
H        11.29409567409864   15.93170599258953    1.01774057137512
C        13.35631120206897   14.93052815394977    2.51471326994652
H        13.65539027124787   15.73826498371470    1.85031844955530
H        13.49260489935971   13.98240024328005    2.00111866708024
H        14.00025753111830   14.94532843417760    3.39215029684867
C        11.72131696024210   16.41108890298330    3.68505146672760
H        12.03301052125351   17.23281225248175    3.04271944702469
H        12.33873756896006   16.43214096081541    4.58001725841988
H        10.68351343532487   16.57888218323162    3.96313962383014
C        12.55192223124330    8.51485879167933    3.12475688464988
C        11.44317131590267    8.08517361532379    2.39598820376966
C        10.25848982625000    8.78625349467611    2.17306365036433
N         9.97381013347584   10.05129158510660    2.65091231189062
C         8.75463459474397   10.37430378929654    2.22942658089421
C         8.20235744145537    9.32849067325660    1.46098680113054
H         7.23156907617544    9.33414259312601    1.00362256581450
C         9.14255416807419    8.32895818677923    1.42307378626812
H         9.07317380012608    7.37816780406383    0.92985685493740
C         8.12291904223877   11.67780610210790    2.55865001921134
H         8.77968747787594   12.25744621144855    3.20441577367041
H         7.17110048914666   11.52116267203231    3.06544078027761
H         7.92977511644034   12.24535886749702    1.64832620253272
C        11.53361205222895    6.73037103302894    1.79295898143307
C        11.09880295041488    5.62039579435243    2.51835793425609
C        11.18807633973734    4.36381648095908    1.94145859531926
H        10.85204317544178    3.50066187755027    2.49902435257861
C        11.69921284649367    4.18869461717903    0.66228400303926
C        11.79654454007882    2.81498674799913    0.06969183302686
H        12.00870537135233    2.86405475250336   -0.99534855833934
H        10.86841958336669    2.26612448265869    0.21858524659652
H        12.59643266834807    2.25384173502130    0.55325736738660
C        12.12678044220878    5.30476028694373   -0.04044378199216
H        12.52744947482410    5.18413445654012   -1.03729803403846
C        12.05132852832266    6.57694600071801    0.50773193414576
C        12.51327017362114    7.77746964121160   -0.26095632896820
H        13.28738601124122    8.30716673422001    0.29296094264381
H        11.68625992879720    8.47050387789050   -0.41221752886998
H        12.91007755048105    7.48725275133172   -1.23055618674031
C        10.54495516132391    5.80000251187108    3.89909963344041
H        11.28475408887093    6.27132864660248    4.54515150862187
H        10.26051641359140    4.84308554799712    4.32950417263759
H         9.67042454596968    6.44926508240599    3.87447068672158
C        13.74772633459547    7.78013431121766    3.34150989882049
H        13.94771335517820    6.79454084682817    2.96649476022828
C        14.56684417455619    8.57195209831556    4.10748974969409
H        15.55229168876777    8.34360451717937    4.46573137063953
C        13.86355483739962    9.77107203390069    4.34486508012947
C        14.32459507411533   10.94402394461866    5.13078102460976
H        13.60342767667208   11.75471456904642    5.04667447852584
H        15.29375206229406   11.28670171355888    4.77041338857472
H        14.43209667865943   10.67563936008131    6.18187763390988

