99
CSD_code = GUWNIX | q = 0 | S = 0 | Stoichiometry = C44H50N4Zn | MND = 4
Zn        0.14145720160925    3.86374768811212   12.34332731362649
N        -1.17187850341102    2.69165889142691   13.12038363004255
N         0.60253730989122    4.76155441780947   13.98476199745028
N        -0.36170064245843    5.02239196661820   10.88979559508977
N         1.49040134174244    2.89581637693984   11.36788593417272
C        -1.85412557933155    1.73678977491546   12.49820651892001
C        -1.74913815808604    1.52731003659217   11.03022485469903
H        -1.67124004017144    2.48490725517231   10.51808780857416
H        -2.61527338553333    0.98457075706267   10.65878799196413
H        -0.85327055651200    0.94973299115333   10.79761325763617
C        -2.62231058228819    1.00597662932838   13.41761021980620
H        -3.26759790998649    0.18036998028399   13.18281977976670
C        -2.39724124154852    1.54533873311724   14.66686377215055
C        -1.46599286613634    2.61996209638432   14.47120762330359
C        -0.91694421575096    3.48212775311054   15.42873230329873
C        -1.38150473822799    3.29584580385826   16.82461016611667
C        -2.51696040870544    3.96852377536280   17.27299751675625
C        -2.93892771083187    3.78138036974338   18.58162374655946
H        -3.81918330303811    4.30272629485281   18.93187016336546
C        -2.25622698925917    2.93963739385701   19.44605879354357
C        -1.12764386813386    2.27798502606989   18.97954321631769
H        -0.58890058069641    1.61880271427446   19.64634566270909
C        -0.67924746701476    2.44488564121755   17.67923798539226
C         0.54071371509336    1.72908173384341   17.18115654166540
H         1.30668184843001    2.44570894412052   16.88564932450476
H         0.29985762979952    1.13141704672784   16.30266497827160
H         0.94938232612930    1.07727710660359   17.94971420770650
C        -2.71212454925400    2.74304287132638   20.86049684267348
H        -3.65530704463416    3.25249906664544   21.04080932838914
H        -1.96924253399952    3.13546443256293   21.55466094575352
H        -2.84071966147277    1.68327511040198   21.07595811850393
C        -3.26217237590845    4.87704525615743   16.34123179309656
H        -3.63267448975826    4.31798189426372   15.48227664486924
H        -2.60295405587757    5.65672933805203   15.96063720910812
H        -4.10510770837015    5.34402998093036   16.84520165863355
C         0.02541978595544    4.49657209869769   15.21583280770266
C         1.45416794721362    5.76928792815143   14.13698308060991
C         1.46538393611038    6.20348509554931   15.47195812481971
H         2.06368255364704    7.00209695153918   15.86860916022900
C         0.57597837437565    5.41523015009701   16.17133000781581
C         0.30550075937506    5.57264834531472   17.62759842970770
H         0.90502165998755    6.39563007021524   18.01277531900809
H         0.55899901859394    4.67108315274670   18.18232702909672
H        -0.74369442554722    5.78981633967317   17.81887335355472
C         2.24313204353008    6.31451877425504   13.00126120055089
H         2.32737424978091    5.57043833145473   12.21122677515272
H         3.23731871516059    6.60701565068572   13.33368134571854
H         1.75043288824028    7.19634739012350   12.58924272149117
C        -3.03563022809302    1.03386505711791   15.91154139951528
H        -3.67975737172657    0.19310167728639   15.66001922804558
H        -3.63901565913197    1.79880468977770   16.39673652483629
H        -2.29313302698017    0.69719925744536   16.63273816249621
C         0.21054492057212    4.99815993660999    9.62883607854860
C        -0.36503800138045    6.06402303639306    8.85925471271381
C        -0.10564458817538    6.49194434062050    7.45631535818631
H        -0.71633431164654    7.36504828505285    7.23298848395979
H        -0.35289077614389    5.70601231157278    6.74493139951363
H         0.94001851995705    6.75289633906845    7.30446313676035
C        -1.26442975095868    6.69304025885545    9.69435878772250
H        -1.88094792727477    7.53832114756211    9.45249415743253
C        -1.23465759268788    6.02273004109417   10.92729703620022
C        -2.02454836316339    6.33311296642116   12.14763064291905
H        -2.15087737964994    5.43633807621147   12.75169727818778
H        -3.00027189420496    6.73252606997531   11.87880798587425
H        -1.50604748552904    7.07866609966996   12.75208557000019
C         1.16851163774976    4.05693207373028    9.23041870693987
C         1.75053987871158    3.05510873212369   10.01723153816762
C         2.20575324200960    1.86667384052403   11.80718270407354
C         2.14638752782045    1.41277325484053   13.22147004330026
H         1.89185991932726    2.24639172975840   13.87329735233454
H         3.10055095785723    0.98830943063818   13.52678867929852
H         1.37889857545147    0.64578628628568   13.33674243498485
C         2.96095294962956    1.31334169766613   10.76103537494182
H         3.62539344116318    0.47356123496892   10.84090272900468
C         2.69324820909738    2.04651802964815    9.62416783690928
C         3.30158589414194    1.75794787388245    8.29557619149753
H         3.95580810925353    0.89246140884922    8.38542189494030
H         3.88883107451424    2.59908026836955    7.93167979928648
H         2.54185820337987    1.54141094485450    7.54674176708738
C         1.61290357643656    4.12618036309494    7.81733739417360
C         2.73719294694892    4.88005946947563    7.47993425748334
C         3.13964513077491    4.93223206735332    6.15444406557006
H         4.01023187970408    5.51555578942134    5.88760066821921
C         2.44988157465521    4.24900426534110    5.16225364426784
C         1.33500410636424    3.50464887683223    5.51857046364414
H         0.78959375670675    2.96715231974632    4.75503102202343
C         0.90489765197186    3.43416796600689    6.83532864826278
C        -0.30207706318672    2.62862827391713    7.21367175735781
H        -0.71188489031223    2.11298001464160    6.34836780181711
H        -1.07250520900820    3.27504892229109    7.63349483924418
H        -0.04631457129876    1.89251420700943    7.97499026818816
C         2.89203544182666    4.33529565418778    3.73257092553936
H         2.50915741533541    5.24980966092505    3.27810105990345
H         2.51935689654071    3.49052665802582    3.15831947087503
H         3.97760459745855    4.35727848174372    3.66403250905196
C         3.48929517592442    5.61614198862262    8.54834896278905
H         3.87692941113614    4.91737146658994    9.28931609801517
H         2.82984502725232    6.30912805620358    9.07014156909787
H         4.32085072815251    6.17382367429885    8.12393877892320

