44
CSD_code = GUWSOG | q = 0 | S = 0 | Stoichiometry = C11H27Cl2N2PPt | MND = 4
Pt        6.23012667535848    1.45681772631079    2.12406298941705
Cl        7.43644625775332   -0.44402373136183    1.90854839548168
Cl        4.32368013527318    0.15759160390761    2.11446770630117
P         8.24429136084416    2.53034627070905    2.19196903065578
N         8.11900653599448    4.20037479169434    1.86238438922405
C         9.49943580518026    1.99116737971176    0.93380642815530
H         9.73482426056247    0.95054901350967    1.17265976227390
C        10.76122997607863    2.84433176404262    0.94371311218163
H        11.25322495536940    2.82138129572028    1.91364709467913
H        10.52038140514575    3.87570377275581    0.69526773514370
H        11.46350177346052    2.47127237885062    0.20018397381804
C         8.81234310990539    2.02998512256865   -0.42851324061261
H         7.88161730217325    1.45978115535423   -0.38730538501245
H         9.44958994162855    1.58942394053689   -1.19235593115772
H         8.59027482807250    3.05687993241128   -0.71510097842856
C         9.07324216968398    2.36804379233872    3.85289014708691
H         9.80260222227706    3.17294139202946    3.98974049071405
C         7.96806325903644    2.49180861274563    4.89962543504160
H         7.51240231696169    3.48124815468004    4.87790874976574
H         8.36099705270549    2.32208390970334    5.90048004665066
H         7.19789838799080    1.73994467573480    4.69864371408629
C         9.77704510763961    1.02184164275343    3.98468710371324
H        10.65350796891317    0.96513728514513    3.34446388979280
H         9.09890637804890    0.21495763315900    3.71539942225588
H        10.10015329860089    0.87593962982694    5.01430156102462
C         8.78661026477380    5.23952786085801    2.61928494554573
H         9.79953187359303    4.92843076450495    2.85795273270082
H         8.27361435178297    5.50992217612465    3.54972072348327
H         8.85041753074291    6.13635717618437    1.99825286715893
C         6.82694727030069    4.58783725184671    1.32672215394551
H         6.90978021904611    5.60852937832803    0.94212397683034
H         6.60888107430516    3.92559602712727    0.48527035647499
C         5.67728032980222    4.50618431172753    2.34342616664935
H         4.96208606621816    5.32162319474428    2.16608367352393
H         6.09617754361019    4.64098588419863    3.34369973520833
N         4.96399027506119    3.22339813503564    2.30531461817912
C         4.03491014564282    3.21689597814326    1.17046303825249
H         3.50513405176879    2.26511762130631    1.15251553552502
H         4.57427101834687    3.33133154629823    0.23141499536615
H         3.30971477658133    4.03431609159813    1.26416054445336
C         4.18689434382182    3.07317743907347    3.53947118828102
H         4.85352279868415    3.04804986135400    4.40131749225266
H         3.63389582897008    2.13559454429676    3.49703421328876
H         3.48154775228773    3.90449561241034    3.65689540062874

