81
CSD_code = GUWSUM | q = 0 | S = 0 | Stoichiometry = C22H50Cl2N4P2Pt | MND = 4
Pt        7.97602641925944    0.00017996763620   -0.00023012938417
Cl        5.89564706320912   -0.67953432600803   -0.75830910820705
P         6.93869522929124    1.66332282674550    1.20468892652945
N         7.93558811143154    2.20797685979002    2.42590373287184
H         8.92132671461847    1.96193918374160    2.29451421818801
N         7.70175097993511    3.39197032719875    3.16077521581053
C         6.50714156088303    3.10001176297674    0.09698754525560
H         6.39627231927069    3.99030111707790    0.72772892254854
C         5.23018302166095    2.86196456657037   -0.70009235199881
H         5.10890374161055    3.64708568874677   -1.44562307214756
H         4.35012769601507    2.86176671107043   -0.06220434598879
H         5.28073420616463    1.90558825492383   -1.21690497457585
C         7.69620317683829    3.25805571755881   -0.84999047224054
H         7.57808477713701    4.12863522056622   -1.49369381436971
H         7.76946347396172    2.36741178780727   -1.48267717689365
H         8.63197667220512    3.35682587333267   -0.29896164568889
C         5.36415527823101    1.20657205583587    2.06843037024941
H         4.67512570139875    0.87769405016085    1.28309250458437
C         4.73820123552429    2.35276882229278    2.85194912787252
H         3.82548084601978    2.00994166139752    3.33824842008384
H         4.48452837263082    3.18554497780905    2.20053627712561
H         5.42381478107259    2.71421310140997    3.61101447274133
C         5.68561870660536    0.01061201723137    2.95953332958601
H         4.78856339732695   -0.35925769907766    3.45271681654657
H         6.41573880202768    0.28627903228516    3.71847386141772
H         6.10539187322802   -0.79618854648651    2.35604315983654
C         8.54096489595101    4.49378373122663    2.71426374008820
H         8.39770842015242    4.62580756798157    1.64052452647907
H         9.60864476209864    4.27035341112036    2.89116679592505
C         8.14748832401208    5.76813434528439    3.45388750026677
H         8.76169984240555    6.59730932515921    3.09923580531268
H         7.10259267713932    5.99395599758620    3.23375909665268
C         8.31856788836161    5.57600456283882    4.95655101453687
H         7.98163825503371    6.46412928484224    5.49350443647292
H         9.37538238085271    5.42222525585671    5.18751918102932
C         7.51745390498509    4.35493398203894    5.39449795351751
H         7.67414060393148    4.15123851079102    6.45488863203143
H         6.45420845934244    4.54196526794119    5.23339615288555
C         7.93742198189172    3.13837437006328    4.57697227457941
H         9.00164770935004    2.91201483003611    4.76278275136242
H         7.35181007495439    2.26316435805209    4.86735701292738
Cl       10.05615306935579    0.67955309926880    0.75837809860778
P         9.01332643955612   -1.66336169162182   -1.20471934452113
N         8.01644929862058   -2.20799861613635   -2.42594042549656
H         7.03070326938301   -1.96198977289161   -2.29452149301529
N         8.25026689694902   -3.39199813480527   -3.16079825257634
C         7.41102188607538   -4.49377372352073   -2.71425671137993
H         7.55428744362634   -4.62578907435086   -1.64051650768292
H         6.34334655729866   -4.27031195464254   -2.89115095360909
C         7.80448443727349   -5.76812725001616   -3.45387397081658
H         7.19028148766734   -6.59730036559394   -3.09920904507939
H         8.84938465268179   -5.99393890227006   -3.23375596566337
C         7.63338856615967   -5.57600382308264   -4.95653629488128
H         7.97029294744772   -6.46413835199723   -5.49348782192618
H         6.57657491215923   -5.42220046207062   -5.18749045728786
C         8.43452550460824   -4.35495311639158   -5.39449641097148
H         8.27784747386009   -4.15126422932996   -6.45488792683664
H         9.49776755622329   -4.54199982360652   -5.23338422411155
C         8.01458142230425   -3.13838032950885   -4.57698702163937
H         6.95035877504833   -2.91198913984314   -4.76277814202775
H         8.60021582961922   -2.26318290103354   -4.86736855074783
C         9.44488779906140   -3.10000783678300   -0.09697035629273
H         9.55575552252287   -3.99027857473878   -0.72773424096591
C        10.72185668035932   -2.86197251510117    0.70009442469801
H        10.84311406485643   -3.64708874141259    1.44563442463188
H        11.60191061662477   -2.86181113088822    0.06220429291855
H        10.67134222073213   -1.90558959793654    1.21689375079354
C         8.25582779781181   -3.25807605335670    0.85000631823976
H         8.37394539688133   -4.12865929084829    1.49370303170180
H         8.18256603093391   -2.36743590207828    1.48269765295635
H         7.32006030784056   -3.35684002831114    0.29896400625314
C        10.58785722211415   -1.20654684445227   -2.06842972552145
H        11.27688166243646   -0.87766249537935   -1.28309231173794
C        11.21379849915397   -2.35277188443753   -2.85191313845480
H        12.12650530191336   -2.00993653643143   -3.33822821592852
H        11.46749782051864   -3.18552571175950   -2.20048277871146
H        10.52818772063990   -2.71424905188363   -3.61096461978145
C        10.26637079750309   -0.01061155840068   -2.95955382194513
H        11.16341981872529    0.35925154185775   -3.45275352172831
H         9.53624713399323   -0.28630619709560   -3.71848134488385
H         9.84659482143917    0.79619115946510   -2.35606908839472

