60
CSD_code = GUWWEB | q = 1 | S = 0 | Stoichiometry = C21H24F3N4O4S3Zn(1+) | MND = 6
Zn        9.05081687189022    6.06291167208518    4.89435849675796
S        11.14826937405078    5.75686768094561    6.45046215908548
S         8.73431250553761    8.38156535726185    6.26356265882415
N        10.14719316741423    7.36450880612696    3.79334828622310
N        11.28247821369523    9.18376396859954    3.22055802898877
N         8.15958649724129    5.34797421838629    6.53343146147385
N         8.02692008561371    3.72186420881738    8.03746415436854
C        10.82529672673146    7.09173328542761    2.62237209562374
C        10.87097118355999    5.93966710794654    1.84614987858580
H        10.33042250920086    5.05761689873495    2.14311751336618
C        11.64786890942635    5.97485293442211    0.70809348132727
H        11.70805183680358    5.09872921589884    0.08231036513353
C        12.36302150722921    7.11840453327468    0.34136437744614
H        12.95747613943204    7.09876935913251   -0.55832959249441
C        12.32982328179299    8.26903223449923    1.10132431755960
H        12.88742627151990    9.14437121518751    0.80894127797081
C        11.54903488927532    8.24095626060105    2.24890414765560
C        11.78285876551308   10.53037925689602    3.27202767142203
H        10.96101274020804   11.24797622540970    3.24835625157348
H        12.42213066950979   10.70240235971638    2.41010226024672
H        12.36708107996217   10.69216002357984    4.17939922920354
C        10.44804679945242    8.60958167749678    4.11109710020921
C         9.91436807983447    9.36189648490415    5.27747048212145
H         9.35308380629506   10.23176486424977    4.92533833012673
H        10.71223597773858    9.71599091451104    5.93126086865026
C         9.71267669444708    7.90992208450913    7.73899349004658
H         9.85983819568717    8.82017808174853    8.32276406580356
H         9.02936882486321    7.25886243198998    8.28337666673627
C         6.82277003905323    5.07182314807838    6.74309224038940
C         5.68413666320593    5.66065374215327    6.20971832814344
H         5.75952707260616    6.47626118607621    5.50900244481189
C         4.46721474055410    5.15702560722801    6.61751598278082
H         3.55854055923167    5.58244418875296    6.22151559255052
C         4.37707769874153    4.10398481256091    7.53063718796877
H         3.40270448800297    3.73686813903638    7.81246713268456
C         5.50055222329773    3.52394506676867    8.08283271320321
H         5.41850561233627    2.71387360950430    8.78952005129948
C         6.72892180439264    4.02809886929762    7.68102591625195
C         8.45182858824904    2.61107998974548    8.84395656658035
H         9.20904100122138    2.92469746242968    9.56333593012255
H         8.86330674173476    1.83331240833160    8.19705709925041
H         7.59400255024883    2.21496737630180    9.38118507421523
C         8.83002585426502    4.52253125602697    7.31797767040241
C        10.30987760880816    4.48352789596818    7.43121606992060
H        10.66757920237231    3.53322868799255    7.02381454260890
H        10.63828575884881    4.57348535188155    8.46942202131671
C        11.06071142477336    7.24392195597983    7.52752173485617
H        11.46821161419185    6.96458191298830    8.49986985961125
H        11.76558949610735    7.92632602017155    7.05277640112189
O         7.38810820611904    6.15633886564428    3.61954567400082
H         7.49925418939592    6.21896385095611    2.66407970765378
H         7.05147960203163    5.24509082152682    3.78992333959797
S         8.63077788967054    3.22383165842827    4.46959994309097
O         7.25922950217547    3.62127971804208    4.27223593213218
O         9.56414528255842    4.34235349672635    4.24101966224411
O         8.93079913363339    2.45481447730940    5.63587281363392
C         9.03161442602695    2.16515818761029    2.98574951517425
F        10.31419724182955    1.81585323735318    2.98453995778332
F         8.80796920614643    2.91298302874294    1.89858363625475
F         8.28794297352787    1.07269060816263    2.90476973428508

