75
CSD_code = GUWXUR | q = 0 | S = 0 | Stoichiometry = C20H36B2N12S4Zn | MND = 4
C         9.05074355173379    1.31893278603998   11.00909738245007
C        11.96323390048673    3.52107529581694    9.96805203005033
C        14.83185111439438   -0.29038306222157   12.29794058607138
C        13.42050160344501    2.69734832786630   14.02875911093601
C         7.72571428197722    2.95433412902721   10.46042912642236
C        12.88351387901879    4.23929355832805    8.14148258883294
C        16.24547982760629   -0.54170989681722   13.92995445747354
C        13.78572916102866    4.82782613761844   14.24454984002918
C         7.24439794059009    1.78475170187037   12.65542574314535
H         7.24188561279244    0.71008420064075   12.85456488133963
H         6.21718112788917    2.13799957288553   12.54263348455323
C        13.49664877202872    5.47124489548064   10.26600646454105
H        14.35535399484797    5.81633631030148    9.68793825924186
H        13.86022776003432    5.00881798542425   11.18884369545752
C        15.03077153092752   -2.62124935604892   13.14471517149796
H        15.88908704029279   -3.19123141799361   13.50780104209300
H        14.79916123683394   -2.92332980649349   12.12016696345811
C        12.08204497257026    3.80519187099265   15.81037147356004
H        11.32020486944748    3.06083404122653   15.56044232391697
H        11.62292875819508    4.79566880979572   15.84387383134105
C         7.95500354574588    2.51599988775550   13.79038196333333
H         8.96736454675008    2.13184878342580   13.89270191983680
H         7.42410793447756    2.35509372399848   14.72406471979106
H         8.00826544944887    3.58407018941790   13.58973525483015
C        12.56563580993566    6.63292182910684   10.59726008419685
H        12.18327407456670    7.09486255304565    9.68909144731624
H        13.10570433178197    7.37890186501563   11.17270792144689
H        11.72536915718643    6.27364236205610   11.18631176986182
C        13.81149434327534   -2.83991845564827   14.03479616159486
H        14.01120077783079   -2.51944979186882   15.05484674066779
H        13.54320304683292   -3.89217488594906   14.03977138183774
H        12.96826939413753   -2.26767280273967   13.65419260394124
C        12.72280007579798    3.45133858063287   17.14818824419498
H        13.14495693390968    2.45097854717598   17.09660542536994
H        11.97228053716895    3.47439037132746   17.93286327863337
H        13.51477677558824    4.15438450437076   17.39713814566892
C         6.61597710860670    3.93303411610441   10.48892506279521
H         6.69410101801523    4.56771218835750    9.61185468469893
H         6.66846484110145    4.54882464843588   11.38566940388353
H         5.65468239334778    3.42038370389296   10.47480571376573
C        13.70962358014593    5.02543007808580    7.19890366693151
H        13.52950487012873    4.65338693392967    6.19533832781620
H        14.76724449740696    4.91361642146206    7.43594105748763
H        13.45077585550806    6.08218489628069    7.24560095286012
C        17.07231884400566   -1.16350647196887   14.98770728798234
H        17.66087824773721   -0.38734058067373   15.46657319668763
H        17.74173373554225   -1.90923469950393   14.56014032987035
H        16.44213300677204   -1.64853843177882   15.73157160461988
C        13.68668002483352    6.23160187032027   14.70164656190384
H        14.42182183579837    6.82206777311585   14.16405893215040
H        13.87612298434564    6.30526697183558   15.77108482832533
H        12.69173082113791    6.62591123043833   14.49621364215933
B        10.66931687613317    1.51929158778163    8.97155468946974
B        15.06636808745127    2.28033955785898   12.04356238885665
N         9.45109740513066    1.85682989357041    9.86079469610669
N        11.55277620613314    2.78561565040331    8.94128270407514
N        15.36261182505822    0.88548452143088   12.61984075856165
N        14.34685865023326    3.08293975781166   13.15833163041890
N         8.62732620114098    2.86991659442471    9.53296387175947
N        12.12861763632738    3.23526950884773    7.81671946127629
N        16.23210502312757    0.72072755428285   13.63405786952526
N        14.55857383358742    4.40331552441587   13.29169720889554
N         7.93465867688773    1.99251457465534   11.40910182484282
N        12.81703237179024    4.46649395421641    9.48943014604345
N        15.39444156291687   -1.22819048055641   13.10960457243202
N        13.05327936525550    3.79384093872411   14.75056613869825
S         9.68577401530673    0.01990363015583   11.89542922440288
S        11.51092125584951    3.39839024563266   11.59414378776683
S        13.69453810104064   -0.67539092748991   11.10032334262168
S        12.74211085027356    1.16610615310400   14.29100103028798
Zn       11.97940864560737    0.90797834598851   11.89739861447788
H        10.31094726167940    1.27852913667604    7.87532213308326
H        11.29842168249693    0.64322455744001    9.49804317156172
H        16.07665373535144    2.83690622300375   11.78960681991902
H        14.32269939612763    2.16300950433027   11.10998314200965

