33
CSD_code = GUWYED | q = 0 | S = 0 | Stoichiometry = C14H14Cl2N2Zn | MND = 4
C         4.22728575530888    3.87103716659650    9.03636628035216
H         4.60074603450057    2.86595531541667    9.17511840271762
C         4.78827134072496    4.72581945910317    8.09683514755006
H         5.61229401962339    4.39476182378341    7.48580808875332
C         4.26261263405017    6.00188872252818    7.96313238521352
H         4.66794348495099    6.69252337202766    7.23905766202664
C         3.20637720770057    6.37555373928487    8.77517330799352
H         2.76766758869173    7.35870362325451    8.70066735422829
C         2.70339831896650    5.45551164128315    9.69666273119357
C         1.59445040393264    5.79814012487771   10.56537266530436
H         1.20159397558003    6.81219406122596   10.47772512656584
C         0.06769940506479    5.19082194486016   12.24069060946291
C        -0.69863123840519    4.10319217812964   12.66876050871628
H        -0.47134707346490    3.11965595130692   12.27815155786965
C        -1.73987978404092    4.28868887123650   13.55138168043097
H        -2.33094409059182    3.44118274565502   13.86482880542807
C        -2.03040557556879    5.55244415420617   14.05861930075369
C        -1.24760052430029    6.62962526562648   13.65159328177788
H        -1.44704552281353    7.61227493247755   14.05426616731185
C        -0.21554475362817    6.46242345635381   12.75326611914170
H         0.40119404414146    7.30725839046613   12.48446830962230
C        -3.18465459742578    5.75537318444530   14.99233730841246
H        -3.33844476892528    4.85675952023441   15.59182842729447
H        -2.97716716153494    6.58837314079648   15.66640430262406
C        -4.45886070001085    6.05452665294762   14.19742714503790
H        -4.68879897683434    5.23017129947585   13.52669844851285
H        -4.33198632378703    6.95562832945808   13.60167991902329
H        -5.29887294148704    6.19911156609679   14.87204911671561
N         3.21893926325944    4.22685223455008    9.80990871260219
N         1.10071903360645    4.93318042560134   11.36220493942311
Cl        2.85983851331720    2.05097299409475   12.67629327279908
Cl        0.59053836180403    2.25099783314752    9.31367366928575
Zn        1.89611464759440    2.97729587945223   10.95024924585560

