51
CSD_code = GUXCAE | q = 1 | S = 0 | Stoichiometry = C24H18ClCuN7(1+) | MND = 5
Cu        4.01766104888917    0.45188419002434   10.21357477022058
C         6.19880451974850   -1.78515531909381    7.63701738771274
C         5.68698970016179   -0.50997334073487    8.01738002894124
C         5.84892109064502    0.61185725981506    7.20348447534689
H         5.45427077720290    1.57245667751536    7.49853231139867
C         6.53201202394740    0.43696465520024    6.01719601151675
H         6.67834540970387    1.27930352718095    5.35942905596032
C         7.04089730583373   -0.81083062084340    5.64587907366340
H         7.56653561905125   -0.90166160875057    4.70798309056558
C         6.88776284700263   -1.93757916027599    6.44908101810553
H         7.29230833465355   -2.89549557266962    6.16589765840530
C         5.25131818046510   -2.00992795885490    9.53714360120736
C         2.05890348291538   -0.09789263067377    8.07504650797978
C         1.15596111934578   -1.19319362709747    7.90448058210250
C         0.38329044141613   -1.29324473558400    6.76581432143700
H        -0.31594816724332   -2.10437722200977    6.64376101395813
C         0.53641326552460   -0.30372694988161    5.79448303997085
H        -0.05162558990171   -0.35984223698817    4.89141658100231
C         1.42632862317089    0.76197230071048    5.95777233563491
H         1.50308875546496    1.50413715774891    5.17878803670394
C         2.20163411848427    0.88704735991877    7.09209421651542
H         2.88242762631836    1.71248646512139    7.22831493172486
C         2.07289048629466   -1.41716179461014    9.81649376799516
C         6.47221611640005    1.44090000044522   11.53226658573561
C         7.14585794473729    0.98602617843118   12.71379652169549
C         8.30901359776760    1.60055277288526   13.13641738269907
H         8.80008074885968    1.28323005488689   14.04191068484079
C         8.80662609873428    2.63950545157265   12.35721098416378
H         9.72248994336633    3.12745997844723   12.65312809413654
C         8.15482466754157    3.07419031100853   11.19310362376150
H         8.58487216341967    3.88565663913636   10.62724737685473
C         6.98719895629793    2.48837035020736   10.75978631497236
H         6.48381287336230    2.81159038966778    9.86196019278078
C         5.36774997066959   -0.16877426164395   12.50918480604627
C         4.74883249224674   -2.58682010787481   10.82606775757924
H         4.28909122364844   -3.55547925376662   10.59363279893418
H         5.61316141288692   -2.77477228225199   11.47348492411087
C         2.41408286953787   -1.89016472189168   11.19715168927374
H         1.81733022848230   -1.31189535438514   11.90985552528219
H         2.10198593019454   -2.94133964144879   11.26574453221607
C         4.24212489432970   -1.12507087713920   12.74432126078516
H         4.58687399866190   -1.87338770071077   13.47197387965555
H         3.40726161550998   -0.57861779643660   13.19418855941443
N         3.81258211147803   -1.73133186198805   11.51009061380837
N         5.88340124618707   -2.68459116940120    8.62747733543801
N         5.10176439089483   -0.68089271123176    9.23166984784694
N         2.61834537165640   -0.25730882003545    9.29485443506273
N         1.22768321601702   -1.99237247838016    9.02267923494259
N         6.41364920372532   -0.03666448755054   13.26341783056161
N         5.35380845436198    0.69533165664289   11.42681306977498
Cl        2.71828723991660    1.74252292762401   11.30650031956496

