74
CSD_code = GUXDUZ | q = 0 | S = 0 | Stoichiometry = C22H44NO2ScSi4 | MND = 5
Sc        1.60382807334124   15.80074773732031    4.37003678962005
Si        4.16115797493502   14.13424079905819    2.94296053094563
Si        2.33753657483811   12.53500602848347    4.66208298024012
Si        3.98125006924001   17.12037955021867    6.63046820669065
Si       -0.98971031849527   14.94639043735828    2.15992979292206
O         3.06478566177327   16.73777588413965    2.67489766653930
O         0.43380319425852   14.26596635849731    5.84559877395553
N         2.79292134223434   14.03259540643909    3.96762018321198
C         2.31378833209001   19.05709181715339    2.37824485129265
H         2.81053969410667   20.00870972398883    2.20885971064234
H         2.00364528827564   18.98876979277749    3.42181376273780
H         1.42270296857080   19.01993019576754    1.75014206449624
C         3.23998115769878   17.93893581647790    2.05367119193208
C         4.29864428061575   17.86833043446037    1.20229812493459
H         4.67405412868940   18.65599905131537    0.58058320550542
C         4.80745813048345   16.55114819997226    1.30915764182526
H         5.64620023906324   16.14675845263401    0.78048431922106
C         4.03703657353283   15.88790508296359    2.21469114135568
C         4.23421432468364   12.91617407624119    1.47512388632526
H         3.30792766108915   12.88858130146257    0.91219327934815
H         4.43043174281112   11.91139913939445    1.83397949150878
H         5.03059373668747   13.18042707304263    0.78711917601106
C         5.86930090892093   14.01977737507552    3.79630808064191
H         5.94394084007292   14.67120340087961    4.66010657028328
H         6.66424256076264   14.29027920681908    3.10815127308044
H         6.05742906387035   13.00633756949673    4.13399737066002
C         3.68301535098367   11.57371280075532    5.61250348614257
H         4.20094930505539   12.19294814642288    6.33626958399769
H         4.42363780242264   11.18691683113390    4.92075706766021
H         3.25817002271250   10.72893390241205    6.14439542323408
C         1.53499505977429   11.27573479980471    3.46486807964336
H         2.28599959852954   10.83510164371264    2.81796086601528
H         0.78476972498887   11.73423122452118    2.82946562015973
H         1.05723137500498   10.46883357717360    4.01213373050696
C         0.99071790009501   13.01506524876020    5.91645107454860
C         0.34883590298825   12.30304581832351    6.88280401553094
H         0.56440686136815   11.29408753928221    7.16915897547071
C        -0.65050387395741   13.14129075288851    7.43523206144658
H        -1.33878944119997   12.89333154581228    8.21796042238964
C        -0.56700166323446   14.32482742614657    6.77012311753502
C        -1.38376865639037   15.56405564808105    6.86540415441236
H        -1.96006073091674   15.55415915186357    7.78616182850283
H        -2.07244094290746   15.62695161397842    6.02191834517497
H        -0.74457817618826   16.44720939141443    6.84676185076984
C         2.19067116898801   17.23221658956186    6.03457928784485
H         1.96951317098113   18.28237344506248    5.78322200170565
H         1.55851704751293   17.01759640095502    6.91403856675201
C         4.41290240979440   18.19273786162339    8.16648604081611
H         5.43922107224532   18.03900833821666    8.48615155362468
H         3.77031954713774   17.95326857452189    9.00852108992726
H         4.29250249867754   19.25122787941466    7.95599458050653
C         5.19079828968177   17.66046741619097    5.24084339054648
H         6.21791178868225   17.66556712181113    5.59252967845245
H         4.96513959857320   18.66278431953387    4.88744374587021
H         5.14074862762547   16.98931923395743    4.38797499238223
C         4.28432245742040   15.28546228285829    7.09718642441526
H         5.33042375937268   15.07730828803488    7.29920127851771
H         3.96073918859787   14.63796467973064    6.28223756535309
H         3.72151912675684   15.00844607653628    7.98467265426066
C        -0.29698375628104   16.32419043743153    3.25109482501043
H        -1.09061492838186   16.67714660221527    3.92764915373619
H        -0.08903096250290   17.18322629888094    2.59181942150738
C         0.48245660920658   14.28719781727677    1.12072129797222
H         0.22214936727490   13.40394528110572    0.54550148946569
H         1.31285997187384   14.02961671903747    1.77935298004258
H         0.83582194528197   15.03834635620568    0.41862014789805
C        -1.71437788606451   13.52228780967319    3.22499700022059
H        -2.05178885641101   12.69875240169004    2.60310888456571
H        -2.56874169323384   13.85680253526136    3.80636582209304
H        -0.97561464280721   13.12833503077491    3.91731397253622
C        -2.38234595873642   15.46280249244112    0.93925244652902
H        -2.70485938299487   14.62905315520372    0.32287218200686
H        -2.04930619108206   16.25169877403626    0.27142925079624
H        -3.25506301046466   15.83255280684060    1.46916850557114

