75
CSD_code = GUXMAP | q = 0 | S = 0 | Stoichiometry = C24H44BClN2NiP2 | MND = 4
Ni        5.48255631352012    0.87180247912165   27.39223698870130
Cl        5.33606676509438   -0.64869248406485   25.83447366309866
P         3.87566800170698    2.21114400346431   26.75251886830785
P         7.13587697113344    0.04793593448970   28.56310508010270
N         6.62423168695120    2.30198216037708   29.73018923021773
N         4.72288101569019    3.27688688890501   28.95691099276095
C         4.41610608414147    3.32703502735664   25.32802218035819
C         5.16817412211280    4.00668269398708   30.03409769416848
C         2.17911933575481    1.42552367084201   26.49309279994089
C         8.71286061314510   -0.37965490405894   27.61798958464341
C         2.14579771440979    0.68885253094700   25.15570504760325
H         1.30328065860663   -0.00133702671707   25.13656317704019
H         3.05917809367577    0.11207602202210   25.01750504084466
H         2.02811900170043    1.38223515630845   24.32651734251940
C         3.55548354303542    3.44795374615207   28.14007501697813
H         3.44665071563604    4.47711337786801   27.78137336304794
H         2.65014052803428    3.18570370276914   28.70104716119079
C         3.37533173851553    4.34609043855445   24.87550596165994
H         3.83159479806825    5.03087937526764   24.16094655927279
H         2.99153380268882    4.93657205202501   25.70501560430784
H         2.54141501816049    3.85758765401027   24.37775088483355
C         6.36218405563589    3.40323437668138   30.51117219615877
C         6.55585604223987   -1.32925352018010   29.71803200601206
C         4.65932614184528    5.13831156690789   30.64488483555136
H         3.75022793507924    5.60084535545277   30.28866740291486
C         7.71844643245292    1.37423338879106   29.77038158756667
H         7.90085281701486    0.98733632368632   30.77876128463804
H         8.64096806362368    1.85091020448390   29.41655693873882
C         5.66860108964788    4.03809823327120   25.85402685922363
H         6.13842612800276    4.60985632125793   25.05477238795406
H         6.38763314428507    3.29648938174552   26.21196745522445
H         5.44420343879278    4.72084759961811   26.67069951872406
C         4.83847353330854    2.44609171274038   24.15113779017837
H         5.43885696985729    3.02285411814257   23.44890344043637
H         3.98220255760803    2.04951482223366   23.61511921073067
H         5.43516939693724    1.60434106046672   24.50273925303033
C         2.11511815152376    0.39349132594367   27.62501009845180
H         1.19682537212125   -0.18820904193347   27.56594573550649
H         2.15553805003567    0.87226465502682   28.60395680548237
H         2.96180509828938   -0.29265938471857   27.53693546293868
C         7.03689474865778    3.93943668921791   31.59279677606292
H         7.94708145880659    3.48747911065935   31.95962257316285
C         7.64357646245706   -1.92793022442672   30.60388794766885
H         7.18546467431871   -2.59819935739190   31.33095700054409
H         8.19064382569776   -1.16371623991443   31.15247834878163
H         8.34866565500124   -2.51084378712063   30.01671423648127
C         5.89933086299314   -2.42200502543604   28.87282165645194
H         5.29553441115748   -3.07255756288037   29.50407763973175
H         6.63476970554020   -3.03528423641365   28.36207618574840
H         5.25071049863940   -1.97680105378326   28.11793325659228
C         9.98414492829326   -0.43042258744563   28.46357403767871
H        10.82255155757718   -0.69008220529974   27.81759791183007
H         9.91975320475729   -1.18226920573164   29.24416720150794
H        10.20972239034687    0.52743207674919   28.92541166167836
C         0.99587846197832    2.38724877752696   26.58730379456274
H         0.07840050287330    1.83173225647151   26.39441266386364
H         1.06414000214446    3.18391447269926   25.85275073371126
H         0.90707430576201    2.83494315902532   27.57389544329970
C         5.46349022230955   -0.68302237924003   30.57814952007730
H         4.96646155462332   -1.44102002580674   31.18224210647657
H         4.71550794413853   -0.21604892606564   29.93251346474772
H         5.86009526588183    0.07578591001579   31.24907626733418
C         6.51433908878693    5.07445911977128   32.19367077201318
H         7.02628102587074    5.50824821652817   33.03980834534656
C         5.34697368799876    5.66297562662136   31.72845079647267
H         4.96607112416861    6.54632134438681   32.21918305920621
C         8.53023089188057   -1.69943933296441   26.87162813492789
H         9.30173507955447   -1.80126333223882   26.10944861224066
H         7.56034350954967   -1.72368557917423   26.37688813987848
H         8.61264536260560   -2.54878798237197   27.54544079268860
C         8.80403819872859    0.75634534006317   26.59242899815366
H         9.65015329091572    0.60582351502763   25.92417474787001
H         8.91989278354831    1.72518274882325   27.07923401638079
H         7.89145734757201    0.77488093298240   25.99064011390291
B         5.61426502523926    2.19849874784912   28.74383053177711

