75
CSD_code = GUXMIX | q = 0 | S = 0 | Stoichiometry = C24H45BN2NiP2 | MND = 4
H         2.18820556498397    3.12902769272519   -6.05237823412564
Ni        0.65019552616099    3.17255945042284   -5.67767882931089
P        -0.26984273836705    3.26337307384455   -7.63555524290975
P         0.72876570356397    3.10426921006715   -3.51493502709889
N        -2.33049640702033    3.44613039116734   -6.10202374812878
N        -1.81317781348911    3.06091739058006   -3.92814020871028
C        -3.50194922879370    3.41858040150522   -5.38650088169028
C        -3.17855815057715    3.16736304539059   -4.02599831685713
C         1.73466610611731    1.67742278686345   -2.79111606830486
C         1.16767245058286    4.78290267499774   -2.76962645097605
C        -0.32061933155987    1.57063350192622   -8.47118427830780
C        -0.98408094076062    2.78414538661370   -2.79268572515089
H        -1.09422412105480    1.73866459959813   -2.47604090032934
H        -1.21845194515987    3.42455696293984   -1.93440619813083
C         0.37064221891712    4.63603548960708   -8.76578376367812
C        -4.17530832578466    3.07811511345823   -3.07150947184820
H        -3.93702256581368    2.88520886749587   -2.03501666097928
C        -4.81841342774447    3.58015267740570   -5.77803172920214
H        -5.07151194901610    3.77362757930105   -6.81089474223606
C         1.25896910697502    4.81296350188552   -1.24748432786467
H         1.35003696736702    5.84621341541066   -0.91233719416705
H         2.13661019077268    4.27412422921111   -0.89890894358112
H         0.37625880523049    4.38542548753967   -0.77628475403749
C        -2.10084226121252    3.69280017777085   -7.49471416417496
H        -2.28238144739341    4.74798047400342   -7.73780086531495
H        -2.74002067108465    3.08109157645108   -8.14201088809684
C        -5.49012002004905    3.24192728690738   -3.48034885187396
H        -6.28320917853529    3.17611535807008   -2.74988646476363
B        -1.24143978219966    3.22788680875552   -5.21722662777295
C        -5.80582576868425    3.48835044015348   -4.80888100092270
H        -6.84031667502617    3.61139417534740   -5.09449762148204
C        -0.53598396078652    5.02097535108256   -9.93231264651130
H        -0.07606375619724    5.84637269593162  -10.47589698592503
H        -1.51666014788549    5.35221779477713   -9.60067124759276
H        -0.66900631559124    4.19752114727435  -10.62732885762228
C         3.22375712743833    1.95860690981990   -2.97351581904917
H         3.79427042609396    1.03799821409732   -2.85805645351260
H         3.58388289709182    2.67089680523977   -2.23528635513404
H         3.40201564612836    2.35330851948848   -3.97288303681165
C         1.44775950721927    1.32676353116860   -1.33320480044158
H         2.05515687094655    0.46576991987231   -1.05385037313082
H         0.40655915779104    1.06104823004771   -1.16982785699792
H         1.70187833489204    2.14438915657990   -0.66553033360452
C         0.06183226420807    5.72512470200476   -3.25782235972826
H         0.30408343888060    6.75537770451739   -2.99842195451273
H        -0.90626094127939    5.48781485672419   -2.82204773826394
H        -0.02161887062523    5.65756898321684   -4.34430513215666
C        -0.93181666842831    1.55576526056559   -9.86844508584828
H        -1.06551413909406    0.52356010062213  -10.19233314497255
H        -0.27713533965132    2.04474956579625  -10.58563880109157
H        -1.90458882538186    2.04271392911018   -9.89398101808202
C         0.51502271158735    5.81085105286473   -7.79226146959799
H         1.00754546972561    6.65577649744419   -8.27096792281982
H         1.12236753895259    5.49032182587476   -6.93839217666165
H        -0.45430863585387    6.14551869232640   -7.42399364647641
C         2.48482369839498    5.25302581807581   -3.38771582541780
H         2.61968894287693    6.32046789487959   -3.21795682295926
H         2.47020722438544    5.06598432627345   -4.46317838803909
H         3.33741228552722    4.73237870938262   -2.96291762270874
C         1.34253676739258    0.51318940522634   -3.70742344342602
H         1.94893725817900   -0.36728070423672   -3.50082992041219
H         1.50499057206849    0.81266411963838   -4.74891543606172
H         0.29461138276776    0.24217334764948   -3.58242377185350
C        -1.13951806545893    0.68999953805175   -7.52101355020952
H        -1.10028694370380   -0.34964073604076   -7.84511573003946
H        -2.18460975863442    0.98876759933315   -7.47734354837897
H        -0.72005992284177    0.74952395939617   -6.51489631986631
C         1.75630289518787    4.26364460362479   -9.28632782686055
H         2.26189630078307    5.14944773997978   -9.66851233959427
H         1.69251074757552    3.53924072890832  -10.09456419876757
H         2.35234193722794    3.84785292166999   -8.47505819662756
C         1.10284778700629    1.01369622788653   -8.51012042580723
H         1.08238778085467   -0.05692452853226   -8.70961925077399
H         1.58740100505846    1.18399621032138   -7.54671159479761
H         1.70079442387253    1.49042214466700   -9.28059238884799

