69
CSD_code = GUXNIY | q = 0 | S = 0 | Stoichiometry = C22H42ClNNiP2 | MND = 4
P         1.22550585649148   12.51008307275423   12.71376019377711
Ni        2.99422059081428   11.77729898553353   11.65575950469244
P         4.65855366266896   10.64276509608971   10.80316087501548
Cl        3.46971507035795   13.58827927720730   10.74156317511528
C         4.71558637668105    9.13428172416545   11.87651552548661
H         4.96678948048426    8.23113612227711   11.31468881377403
H         5.48182997724050    9.27561600124685   12.64621059814473
N         2.57176261737229   10.16779004172014   12.46873750041654
C         2.71417717944267    8.06654416887802   13.20511454106282
H         3.08437993639910    7.07847462484889   13.40532575485825
C         7.49735374491354   10.23546661634168   10.84936779272775
H         8.47468419029032   10.71124984005345   10.92761435022443
H         7.47280160902498    9.67569328556607    9.91934852574272
H         7.40395468760252    9.53546763981599   11.67568354008142
C         4.19475887368460    9.97845181459839    9.09735461591563
C         2.60463618031527   14.50908688530958   14.09744383042959
H         3.10691765222678   14.80829364055547   15.01668781693083
H         2.02885098596773   15.35591134019988   13.73778103970553
H         3.36571729544360   14.27383450729625   13.35369168888492
C         6.41847338085748   11.31669256840229   10.89007843438648
C         2.86379571727701    9.25159001782506    9.31775996709624
H         2.44824069430446    8.93224487132972    8.36279550056021
H         2.14575215791103    9.92776098593169    9.79179318353835
H         2.97634933855331    8.37525901611465    9.95202344354813
C         1.72376490649093   13.28647554926707   14.36161196289946
C         0.30605476857146   14.95238781138237   11.65266218412085
H        -0.32168592198002   15.43555043601053   10.90467870672061
H         1.34173134084492   15.02942641331118   11.32751892091151
H         0.18071693877351   15.49060009359260   12.58915854618076
C         3.36412968121095    9.05964091089670   12.51025147365503
C         6.45737535221101   12.03801728647423   12.24251238386145
H         7.43524271053613   12.48741832382703   12.40759000580306
H         6.25562404028619   11.35309258540772   13.06624852469047
H         5.70941952643464   12.83216563536876   12.26166120875991
C         1.46879492384248    8.59484199611126   13.60327650371446
H         0.70747090131928    8.08674235192667   14.16511410990396
C         1.41624392076393    9.88676988439777   13.13463496570203
C         2.59207487767827   12.22073762804784   15.03893097810276
H         3.02946609362020   12.61876823120522   15.95372078491616
H         3.40834098430573   11.92813592235520   14.37120599744939
H         2.02249218142973   11.32924717608821   15.29158742634911
C         0.55331905398051   13.66468046972495   15.26293354414187
H         0.93408027872871   13.94778789489523   16.24404560523501
H        -0.13674288843975   12.83474998120961   15.40111431314084
H         0.00677028035094   14.51538300173304   14.86288201584972
C         6.66273907272290   12.33888718894182    9.78179679407215
H         7.56675928740728   12.90649410738360    9.99982507667123
H         5.83080911052365   13.03748840874886    9.71712948127092
H         6.80056430876007   11.85170168964769    8.81946596314716
C         3.93496383104466   11.15379246443268    8.15326069070518
H         3.43084213322234   10.80147788689263    7.25404077688959
H         4.85442581704492   11.64606243043943    7.85284441428695
H         3.29529314029792   11.89235465598126    8.63613946478149
C         5.22028281809078    9.02861485968476    8.48786507496885
H         4.79763946597479    8.57115203585184    7.59354310905790
H         5.49005123199090    8.22873390905840    9.17452343035540
H         6.12211556457321    9.55945655213679    8.19237459800218
C         0.36120725219436   10.94360792796628   13.19317455883019
H        -0.11217810832682   11.01090798367505   14.17579609424310
H        -0.42107146698091   10.73168144484389   12.45651958597136
C        -0.10223035595541   13.48771342795428   11.79715600591277
C        -0.12357412651850   12.84296902900929   10.40624028919814
H        -0.85400926465799   13.33696134787727    9.76761418966515
H        -0.38100084502895   11.78508245185228   10.46042966264265
H         0.85751035914480   12.93682384603283    9.93813098438483
C        -1.48842222962907   13.39267431889592   12.43280510325198
H        -2.19162182467716   13.96663038102780   11.82966674964347
H        -1.50019685454452   13.80219084154250   13.43834502334913
H        -1.84838952400559   12.36784908284055   12.47371250445036

