97
CSD_code = GUXNOE | q = 0 | S = 0 | Stoichiometry = C36H56N2NiP2 | MND = 4
Ni        4.60468507356179    4.07517828651488    7.89861821827209
P         4.55440135459202    5.57287900377179    9.47636530938433
P         4.38722702504845    2.31191616348376    6.64457249326900
N         3.92744096727700    2.94875479710683    9.21646999261021
N         5.40765603923391    5.18226184539088    6.58382340639335
H         6.40175622112162    5.36969885995920    6.73226614571826
C         3.54088152792543    4.78356325959534   10.80736806877545
H         3.97186111262807    4.96467046685834   11.79748011193453
H         2.52983280257051    5.20516573535371   10.79235560370860
C         5.48125679136195    7.38600901314699    5.58440638952485
H         6.54369771038203    7.46357645468998    5.78141438825731
C         3.51336819474040    3.32754253951955   10.45952896580184
C         4.79101059595356    6.22886083420624    5.98965305656030
C         6.23505814238472    5.65774149727931   10.26594384765935
H         6.13086004562527    5.98482541712578   11.30842907467013
C         2.77241620720570    2.28231921356925    5.73534536315640
H         2.84439757728067    3.08992173762710    4.99531656762955
C         5.62962834549298    2.64499559793495    4.18442451250844
H         5.69181037790811    3.68975612996222    4.50034565718348
H         4.68417097333322    2.50982475521160    3.65608121720517
C         3.81849039982947    1.59133254890519    9.13128477279665
C         2.43715464968376    0.98182288400440    5.00951615344855
H         3.22128117091608    0.72334353272536    4.29500727286803
H         2.34852346071158    0.16147790774491    5.72472351039893
C         5.67285448620685    1.76098819941769    5.43014797803878
H         5.49578199488669    0.71091041906764    5.16419247622309
C         7.03068369473820    1.89792898171230    6.12216550537215
H         7.12989898886252    2.93029916835405    6.47231579273998
H         7.07882715777756    1.24340816637979    6.99634133818059
C         7.16115735389111    6.61519617754410    9.51707385586563
H         6.78871971887757    7.63896314280889    9.58870996258800
H         7.17765825228756    6.34041459724153    8.46024811449738
C         3.32983374807552    1.10200807574126   10.32021777354630
H         3.13623472940339    0.07262221346731   10.55831490971050
C         3.96352050119934    7.32619750887382    9.36866309920987
H         4.61892504876180    7.81482951435570    8.63571988768631
C         4.24778112421674    0.92605210026686    7.86074055741875
H         3.54053643524536    0.16035156626837    7.53152656423279
H         5.22674926187106    0.44795981821995    7.97791923468577
C         3.41436740783853    6.16289130702696    5.70457128099244
H         2.88370066116659    5.26799255357501    6.01328210138715
C         8.58123396326091    6.55003801378241   10.07326437084327
H         9.22487715698202    7.23486722640872    9.51685961391457
H         8.57776640261331    6.87057968968461   11.11817855815236
C         6.78242672636843    2.31739830463421    3.23891690611389
H         6.68143103501116    1.28788283379429    2.88455608634570
H         6.73928238820590    2.97567364330229    2.36909353200036
C         2.54283336609310    7.34779714701590    8.80428394361009
H         2.51821397751862    6.79203974516533    7.86452412184549
H         1.85412980850342    6.86800318921915    9.50433861507132
C         2.76680136453366    7.19581742354861    5.06697549448593
H         1.70634971676291    7.12162059180833    4.86607663613124
C         4.82290333723513    8.41073707974472    4.93930915199048
H         5.37600107554713    9.29132587518409    4.64072655878021
C         6.79639601027405    4.23295281094552   10.23283500658139
H         6.15866584176446    3.56970628515558   10.82231640542340
H         6.77288090520669    3.87314379543877    9.18962039518287
C         1.66240119644593    2.63640604901345    6.72707367466771
H         1.57180296964464    1.84784358855191    7.47811630592324
H         1.92345244200368    3.56195259892139    7.25643190644483
C         4.01440371624424    8.09170575250317   10.68897044877007
H         5.02461843002773    8.09063561436308   11.10274854683157
H         3.35229820710347    7.61497839582981   11.41550281992602
C         3.13596432049495    2.21127060141549   11.16948516917241
H         2.76686572168021    2.18794812358141   12.17789604584196
C         8.22448135355099    4.17633360213585   10.76268985813232
H         8.22893261204920    4.45913765089394   11.81852130271133
H         8.60347272144940    3.15495756247417   10.68999069016520
C         8.12310730388327    2.47618271617688    3.94685672512323
H         8.93912944799180    2.23147888086807    3.26379570827266
H         8.24460826981363    3.51545636643207    4.25886441851351
C         1.10640542318193    1.14032334007274    4.27402388212714
H         0.85706206317071    0.20952617458037    3.75958241123394
H         1.20247306470556    1.92418543245647    3.51885920015978
C         8.17671278542781    1.56956642819892    5.17155063648372
H         9.13132810628982    1.69103279518680    5.68812782310406
H         8.09938157340880    0.52635743219938    4.85463466741496
C         3.46345159806110    8.33222212346330    4.68072585832690
H         2.95360069410348    9.14401325320218    4.18377983023975
C         9.12559696618678    5.12837769341043    9.98362993174501
H         9.16234074884567    4.81839072410463    8.93652870092680
H        10.14231539992257    5.09124815188167   10.37990417199421
C         2.09451264187907    8.78620953674026    8.57031228315442
H         2.74739232200299    9.24809243868909    7.82658548696450
H         1.07770833036663    8.79693873674318    8.17318011884664
C        -0.00928275188379    1.51112210912847    5.24738444742802
H        -0.94821411056587    1.63495958156844    4.70396399361302
H        -0.14481150645431    0.70094733092955    5.96778036879188
C         3.56145984184013    9.53378964303067   10.46262563275444
H         4.25344736807409   10.02309244430735    9.77301960056954
H         3.58732576688410   10.08085435463824   11.40790094790199
C         0.33493222159047    2.79664088966812    5.99484363642826
H        -0.45707652824441    3.03734756882456    6.70681891215684
H         0.40867376979689    3.62232130199019    5.28274785955784
C         2.15395279570420    9.57578521626867    9.87484776819761
H         1.45029744347187    9.14423839301570   10.59116920158968
H         1.85748485188435   10.61179375568418    9.69936307923097

