96
CSD_code = GUXPEW | q = 0 | S = 0 | Stoichiometry = C36H55NNiP2S | MND = 4
Ni       -1.37322586843469    9.65423932984879    5.05753299705909
P        -3.12901481189557    8.54856649074882    5.72031083366434
P         0.61806966212174   10.50735532041749    4.83881389957332
S        -2.46620590338605   11.45263120025769    4.29803556888991
N        -0.45989549663445    8.17808911617032    5.74137314486935
C        -1.01464941604149    6.97975097685415    6.07488786879597
C         1.57225617387299   10.47524266967118    3.24694737570655
H         2.61485913336373   10.71200894828277    3.50157497686709
C         0.85939350010515   12.22686791134790    5.49144181882969
H         0.37145270918404   12.88903740715317    4.76495454906535
C        -2.49426048628539    6.82022975877815    5.91316758322177
H        -2.94863447795669    6.32309375960704    6.77586231162307
H        -2.73989611335206    6.24495859350590    5.01317769928693
C         1.16742359698764    6.90151400631808    6.56875321942165
H         2.13119487746389    6.56447048626450    6.90170738884063
C         0.86443290434190    8.14166262616092    6.05508779722836
C         1.65761021133183    9.40218781981790    5.90248331070430
H         2.64479531774616    9.23469061543453    5.46247254642226
H         1.79844837303745    9.87435966250095    6.88192673892899
C        -4.81448154312950    8.38460599674412    4.95222098703818
H        -5.23431976269615    9.39818087820479    4.94161649992247
C         1.63585083255857   14.17579651491257    7.54186235673992
H         1.69150278538407   15.19916083207939    7.91830123324398
H         2.10621936595282   13.52214664971399    8.28071334068392
C        -4.70726870138171    7.91106156864509    3.50231875774035
H        -4.07097156624509    8.59391299715142    2.93679493833871
H        -4.25533247405054    6.91641884512110    3.46581869328041
C         2.38795774918905   14.06903753678483    6.21892226247579
H         3.43274977640232   14.35538596301335    6.35907643577314
H         1.94564137622835   14.75922368462326    5.49655930342776
C         0.09523151086907   12.34519542619914    6.81079901769299
H        -0.95187577169108   12.07444284967614    6.63356859433212
H         0.51195102876742   11.65184680516266    7.54734014618592
C        -5.73661248242322    7.45664818753653    5.74217870540669
H        -5.31232397212688    6.45028965214899    5.76153797151773
H        -5.84112400883090    7.80123427620165    6.77221508267079
C        -0.03257525438176    6.15986641038495    6.58191795391680
H        -0.15746635540605    5.15077447552319    6.92775049916967
C         1.76182581284327   10.01361763517481    0.35162825141019
H         0.72014635009827    9.77784999256830    0.12334132483970
H         2.33142328157004    9.96492775283707   -0.57875544703518
C        -3.46833487100695    9.09285728872410    7.46471913755034
H        -4.03092065508272    8.31155658423143    7.99131904311569
C         0.17788295753437   13.76595435649883    7.35704959972127
H        -0.35169660476343   13.82935234279883    8.31013081730321
H        -0.30751590047454   14.45017343158309    6.65765661867739
C         1.05121186955838   11.50033250434247    2.24187110757226
H         1.13304614493985   12.50889917284632    2.65285263203532
H        -0.00307823515049   11.30585225022309    2.03739248782408
C         1.51759296012757    9.06620672489602    2.65550788570586
H         0.47777575096578    8.80296111308501    2.45532601697817
H         1.91154487713332    8.33920358609580    3.36976313971883
C         2.31654214019412   12.64620858349755    5.66549674735033
H         2.81857572007169   11.96649571089012    6.35805851953863
H         2.84361348349512   12.60620015893202    4.71032907233211
C         1.83874696843959   11.41946088651874    0.93700691453245
H         1.43781037711390   12.14286904382885    0.22437802144258
H         2.88455594294652   11.67756946892877    1.12490838737389
C        -2.99068718906188   11.79178002145192    1.64269387186258
H        -3.35347738868108   12.76984614456874    1.92011878743385
C        -2.11710829730048    9.29888933558410    8.15245988341377
H        -1.57969421358401    8.34979722302541    8.21326729730344
H        -1.51890956605391    9.98531416664269    7.52997943818149
C        -2.50678308059187   10.94255230136621    2.63839368285749
C        -2.04225348422785    9.67328498359993    2.27932035104860
H        -1.67244324747602    8.99269037059046    3.06633570823362
C        -2.27380463411280    9.88984838499333    9.54829910284852
H        -2.81463968378876    9.18320397177870   10.18347028424916
H        -1.28787801140300   10.04672634618403    9.99098168906665
C         2.30587468125352    8.99806242606731    1.35139902236409
H         3.36017332405218    9.21029317145741    1.54794597772967
H         2.24080873840351    7.99052529538595    0.93565301519430
C        -6.08808019492727    7.85571009201943    2.85518212480876
H        -6.51358227325872    8.86144202480068    2.82844656354624
H        -5.99583425778443    7.50561250388446    1.82513113174573
C        -4.25954183201252   10.40223278850667    7.45067524917725
H        -5.25220178384657   10.24061412806121    7.02608349626456
H        -3.73534762600657   11.12208150983629    6.81443575278603
C        -4.40761874189944   10.97768995838920    8.85623685597796
H        -4.96035528176020   11.91796147379172    8.80726805443677
H        -4.98215227148779   10.28352269413748    9.47558812109395
C        -7.01212283998416    6.93289452162751    3.64280193456515
H        -6.61484769555211    5.91526753163090    3.62061387331243
H        -8.00282764697487    6.91479774507095    3.18436145586175
C        -2.99524246558738   11.38107357866303    0.32542118981060
H        -3.36843272898293   12.04771138783194   -0.43850491816564
C        -3.04048588917082   11.20594695840018    9.48973408462232
H        -2.48082845606520   11.92723469400348    8.89031291775305
H        -3.15624381985593   11.61869500116310   10.49410549722069
C        -2.04982407274397    9.27155467708545    0.95792870033058
H        -1.68724141871162    8.28709894862084    0.69532483330370
C        -2.52363533345820   10.12443545280191   -0.02623421752441
H        -2.52640989299207    9.81177529310228   -1.05960917472081
C        -7.11688799835569    7.40459318331600    5.08922804544760
H        -7.56537249510875    8.40067519044795    5.11257456052486
H        -7.76501571997772    6.73242968233780    5.65607106966345

