72
CSD_code = GUXPAS | q = 0 | S = 0 | Stoichiometry = C36H31NNiOP2 | MND = 4
Ni        0.29075295479786   -9.74967088054856   -1.02628177028385
P        -0.74933598068416   -8.77391048711003   -2.64835434723764
P         1.58327411156255  -10.30490656170665    0.60981248160278
O        -0.34098806796655  -11.49023930832071   -1.29123724163183
N         0.97303727629850   -8.05152487933335   -0.74945229505979
C         0.40350163715594   -8.90852302272514   -4.05058620700203
C         0.71728122204469  -10.37897999219833    2.20154072463153
C         2.01767793877799   -7.73974302089288    0.07338929525463
C        -1.20989048339730  -11.83804200936263   -0.37056915763330
C         2.58475256934109  -12.69952184204839   -0.36601919051109
H         1.86964621184239  -12.54684921826650   -1.16374319814584
C         1.61700535647056   -9.54661223829799   -3.81708526217683
H         1.81023305092791   -9.96976104130683   -2.82567173967078
C         0.50090667187884   -6.89327511838568   -1.29561068109729
C         2.65898483975590  -11.76593043362401    0.66016026430819
C        -0.66697996095816   -6.97588131507872   -2.23140028590955
H        -0.52968185390078   -6.35708695165588   -3.12351784456270
H        -1.59837290168461   -6.68019238570898   -1.73247657673671
C         2.21106000638532   -6.37768219602683    0.05425839944261
H         2.95563947940894   -5.83034737381262    0.60101747682102
C        -0.78561031749371  -10.46240343391124    4.52956361677023
H        -1.37078441256637  -10.49515627851173    5.43675345908084
C         3.40750863183460  -13.81267984893488   -0.34609884936525
H         3.34860781671395  -14.54174060889349   -1.14092068920573
C         0.12457341158584   -8.38415775538381   -5.30690391763831
H        -0.82574330081783   -7.90215189504587   -5.49198774864622
C         1.24511327823543   -5.83819465101320   -0.82045773241802
H         1.11639042809979   -4.80173038242027   -1.06943471581165
C         4.38194758181752  -13.05857421539135    1.71679613096425
H         5.08197132623278  -13.20255189695268    2.52703761730826
C         3.56167529820241  -11.94651113374411    1.70383939947594
H         3.61006596214692  -11.21979973693323    2.50337049704910
C         2.72746639887662   -8.85661094406814    0.77595235567416
H         2.94564018538505   -8.62570340084808    1.82284251660628
H         3.67071222260939   -9.10596934267700    0.27354976753650
C        -1.48929194319178  -13.19214689120162   -0.12557731229181
H        -0.98326574475962  -13.93942726566549   -0.71926691522719
C         2.55418954380619   -9.64773977375944   -4.82828574324174
H         3.49774905270724  -10.14130475897486   -4.64728821810031
C         0.25135010717342   -9.19856321064274    2.77503375918823
H         0.46442123211768   -8.25031471403534    2.29926084084202
C         2.27693123853817   -9.11639505699561   -6.07769787934043
H         3.00633197600590   -9.19372157419389   -6.87056291481962
C        -2.35704920242430   -9.09208415967198   -3.42513432518632
C         1.06378821877221   -8.48952666217316   -6.31655889889744
H         0.85095574167626   -8.08185569784168   -7.29415609520926
C        -2.77536166420094  -11.25261958305477    1.38781322692512
H        -3.27254746063988  -10.49520531699631    1.97823107316675
C        -1.88723255294863  -10.87706283334135    0.40371519681228
H        -1.68795233450606   -9.81453073868263    0.20336754627714
C        -0.34009445796919  -11.63900540900252    3.95001229990736
H        -0.58168432476105  -12.59000221185334    4.40089287147734
C         4.30495212594844  -13.99143426838265    0.69319978058025
H         4.94671215357837  -14.86020112140948    0.70969413540691
C        -2.38554715418729  -13.55291482690394    0.85763744498905
H        -2.58211794120602  -14.60148347322188    1.03508352958945
C        -0.49056110366210   -9.24337949129060    3.94001785875161
H        -0.84697655956481   -8.32613803262764    4.38609267734605
C         0.40576170112160  -11.60197480374437    2.78683812635338
H         0.73818907153200  -12.51994143997967    2.32324317392122
C        -3.02797812284513  -12.59376200179205    1.62518714179622
H        -3.72051077118315  -12.88870264386952    2.39935967558605
C        -4.76430696724714   -9.75795501446558   -4.62527176321847
H        -5.70366086757383  -10.01403013951845   -5.09288508314245
C        -2.72376028616142  -10.42826486755530   -3.56341838414544
H        -2.06040884380286  -11.19415386158099   -3.18515516674461
C        -3.92373144376740  -10.75873486928512   -4.16341177897535
H        -4.20837946193661  -11.79531208323294   -4.26705766348053
C        -3.20560272297304   -8.09004310012403   -3.88083343982153
H        -2.93331183908527   -7.05020415786679   -3.76796703565896
C        -4.40557001009047   -8.42771510561025   -4.48218460560476
H        -5.06426697163738   -7.64923303833721   -4.83954168771826

