83
CSD_code = GUXTOK | q = 0 | S = 0 | Stoichiometry = C37H38FeN4O2Si | MND = 5
Fe        5.05927928895954    6.93949902174492   13.90475323382813
Si        2.29904011084769    8.64400963457954   12.69506132792988
O         3.79649511017561    3.39393217611695   12.08892393729619
O         5.32119873471235   10.00566645295032   16.68759894952466
N         4.70114987357604    5.37142311956399   12.74021749191479
N         3.48439514188214    6.51021336418112   15.03508108014945
N         5.53663614399744    8.40146052286835   15.09982592663651
N         6.72613339858994    7.10206580568022   13.06702133563545
C         5.44839286784528    4.96505309344092   11.54873197982802
H         6.52167964252029    4.94089214923477   11.75820114235976
C         4.92548577333237    3.53699753204087   11.25820640134397
H         4.62342946085692    3.40638320441880   10.21547294120484
H         5.66219705434677    2.76657070703652   11.51723739584324
C         3.77036944569647    4.46665764679476   12.93563135067163
C         2.77807966256487    4.46882166497524   13.90994273795214
H         2.08559319163992    3.64355873108036   13.89757009558949
C         2.65088517204403    5.44820642671739   14.87026506339413
C         1.61481522162807    5.46326423608192   15.88548763489291
C         1.87918919531563    6.58670350767937   16.68826607381322
C         3.06370711937844    7.20690055254189   16.12571150466833
C         3.67325257532338    8.32761156622165   16.64062639953153
H         3.24298547587644    8.82954314792265   17.49058309835733
C         4.83249513976231    8.87242886886837   16.10266847923312
C         6.42319296905322   10.43498331063433   15.92123512700869
H         7.26159464902588   10.65254829730443   16.58880975222928
H         6.14925271339837   11.34661036174766   15.37697969707015
C         6.71414249558303    9.25141932665399   14.96629558986442
H         6.81408562100823    9.60141168790775   13.93575502893362
C         0.53046359684983    4.64233704128613   16.15021401220395
H         0.31852654945625    3.77897881628347   15.53754332534755
C        -0.28211669535688    4.96278318234814   17.22372242015381
H        -1.13700845993045    4.34231553157802   17.45093227080882
C        -0.01985628398402    6.07502482913134   18.01903914525126
H        -0.67580061300084    6.29652175536459   18.84854365358339
C         1.06251648512319    6.89868896170184   17.76319359485749
H         1.25807743979260    7.76084822063739   18.38297487603798
C         7.98642998226113    8.55161132270588   15.38448100264958
C         7.96413094500724    7.55027751697570   16.34658334004474
H         7.01735433774756    7.23981227848326   16.76626442321632
C         9.14070918258181    6.94957976385415   16.75712737145884
H         9.11347458971298    6.17109027954989   17.50549608652727
C        10.35064271528380    7.34651268073958   16.21372163572793
H        11.26900332717576    6.87702002536967   16.53387013536086
C        10.38009299739754    8.35210021077913   15.26239115836185
H        11.32180849183385    8.66901882032819   14.83908482191701
C         9.20430452056313    8.95452240892459   14.85271040211852
H         9.22843217932690    9.74060401700715   14.11151937876576
C         5.19422995639685    5.86364363288919   10.36227937311502
C         3.89329076866258    6.20915743531979   10.01761501543239
H         3.07449556805981    5.87331734053159   10.63331195889506
C         3.65018317702833    6.99656735287738    8.90737833776290
H         2.63566773537790    7.26362310171888    8.65230271975900
C         4.70382612884121    7.44322493535566    8.12751123851027
H         4.51505566133645    8.06186013585383    7.26261696104509
C         6.00087739660588    7.09055856374681    8.45834919767607
H         6.82611171569304    7.42972643904446    7.84930351092787
C         6.24491799271126    6.30005228323883    9.56840008702570
H         7.25857151632948    6.02005859821751    9.81876591733379
C         7.25076525769768    7.87817566685188   12.11117123848761
H         6.57707764591653    8.58764675071115   11.65725145646132
C         8.56711219115108    7.78674618330923   11.70144058877814
H         8.93195247378651    8.44359565634861   10.92686881206337
C         9.40182740341507    6.84485868245738   12.28430149216505
H        10.43262459741574    6.74642639717521   11.98422127097879
C         8.86211475134662    6.02458584641684   13.27271080155959
H         9.46439366202488    5.27364914973141   13.75945458772869
C         7.54532756733435    6.19402008216089   13.62835054078783
H         7.08465643902807    5.57315874479953   14.39640520833282
C         4.14580085573590    8.27012919797740   12.70684883802433
H         4.66006123758483    9.21992511852254   12.87705297169140
H         4.42142029563901    7.93852646835017   11.70563443851974
C         1.64141350645546    9.51627525718613   14.26552307109327
H         1.25028388016883    8.80181975915275   14.98110894031213
H         0.84188318286672   10.21071581602856   14.02347896130568
H         2.42579917604380   10.07578462442150   14.76370070974138
C         1.13945956550896    7.17734776748958   12.28731179540391
H         0.96081355378937    7.09588680412263   11.21951066627641
H         0.17390368585030    7.29841942083327   12.76960839516876
H         1.55737427617753    6.23890235003757   12.63112464135727
C         2.03675436263130    9.90796159581832   11.26078591284758
H         2.50962408563487   10.86019687367916   11.48052689339983
H         0.98240525778880   10.10025981632729   11.08665103681027
H         2.46198493090346    9.54071237290708   10.33144858212977

