76
CSD_code = GUXVEA | q = 1 | S = 0 | Stoichiometry = C34H35ClN2PRuS2(1+) | MND = 6
Ru        5.91473940698772   19.75658767900520    4.80407057699476
Cl        4.99418760354647   18.21442481784673    3.23726819814446
N         7.88121552129787   19.28119385672835    4.23965382744160
N         3.97957245158475   20.12318190802644    5.54576963931716
P         5.68920710905879   21.11358747132798    2.87011567783995
S         6.27570884139746   18.02762900109961    6.41960864878564
S         6.65533385220595   21.25780346873040    6.46962332027636
C         8.07044858752171   18.01611999173265    3.85197670203355
H         7.19264212543706   17.38186103435345    3.82810708138662
C         9.29671395311174   17.51131374328569    3.46600058552560
H         9.37600262641808   16.48222484484397    3.15704188096964
C        10.39912533610582   18.34906722481576    3.48155124429014
H        11.37414335635105   17.99956271339248    3.18174705867440
C        10.21191486459364   19.65346922020897    3.90117857831128
H        11.04172664207201   20.34157526147445    3.93789413308188
C         8.94738042346584   20.09271199583863    4.27360955873044
C         8.77845709436367   21.51058423752329    4.74187876424420
H         7.97689612323988   21.98756751339841    4.16975373155928
H         9.70120970455172   22.06097430147815    4.55436313910258
C         8.43912016809670   21.59401002468406    6.22630992527796
H         8.61782504716708   22.60048516676010    6.60525837049005
H         9.01544797392555   20.87790853253026    6.81010021009194
C         6.66830768427571   20.27565258154673    8.01749145681286
H         7.29761964900742   20.80890682626680    8.72995766735674
H         5.63355453342328   20.31106135977815    8.36504297009419
C         7.13301046909639   18.85302440995271    7.81134368137424
H         6.97181818912679   18.24608940380809    8.70197964091694
H         8.19151462953966   18.81186885900465    7.54603598100409
C         4.67593002290862   17.56532025166169    7.16376042899109
H         4.75903885061963   16.51246849894192    7.43286466916897
H         4.51359805935815   18.16141881006458    8.06197663786951
C         3.56485866387902   17.76737412396562    6.13841237271827
H         3.91809552014273   17.42942779988794    5.15733128905425
H         2.70559587136384   17.15763962307464    6.41892355956367
C         3.14408374264313   19.20622354213566    6.05496614346195
C         1.89071876056678   19.55935849418391    6.55054034831895
H         1.24573943988296   18.78820933825039    6.94134966516839
C         1.47639375526988   20.87710948915056    6.53832776698786
H         0.50580445220878   21.15758126039846    6.91506711902657
C         2.35315321828653   21.82253397826811    6.02910324898229
H         2.09754497048129   22.86867900764067    5.99209013293195
C         3.57458426930218   21.39885339795662    5.54475450844737
H         4.26415058886610   22.12309024181635    5.13042399824041
C         4.29809241231150   20.73104215548202    1.74455323346852
C         3.00786746688592   20.77566453740745    2.26606136209342
H         2.86046813789825   21.01259538743761    3.31015054669564
C         1.91655089727349   20.51131685368648    1.46131919316565
H         0.92167133079860   20.54124916147829    1.88030469577426
C         2.09939384892754   20.20518331507044    0.12266500059766
H         1.24820918861162   19.99204540249301   -0.50555045574271
C         3.37820190714362   20.17366970924813   -0.40520955461243
H         3.52780059703093   19.94070035689687   -1.44882016120299
C         4.47546445813147   20.43648253597833    0.39672432822173
H         5.46568913428480   20.40786942787308   -0.03359682983945
C         5.52767931161364   22.94281675539514    2.91182067671969
C         5.08537699972501   23.61193919092291    1.77234561418248
H         4.82807463881457   23.04998117317450    0.88644181212039
C         4.97899853685171   24.99013353404356    1.76924504325771
H         4.63555819277228   25.49701215666881    0.88037349508758
C         5.31061909939695   25.71991390253298    2.89995282020078
H         5.22355539366331   26.79538977984308    2.89550296623152
C         5.75506588923448   25.06415168553926    4.03510048918417
H         6.01812085776268   25.62567957312442    4.91898400591464
C         5.86349286379197   23.68426424161926    4.03956352633003
H         6.21380765896053   23.18307524353890    4.93396447208459
C         7.14889289438806   20.91301648473125    1.78907876055509
C         7.42798108722933   19.64415579224346    1.28107547032981
H         6.74995062636306   18.82724788396323    1.48619314139017
C         8.55793638436465   19.43247587810581    0.51438952802880
H         8.76103240370260   18.44765398316710    0.12118713332018
C         9.42472491919440   20.48063884005714    0.24820126377949
H        10.30756687760980   20.31467840910149   -0.35000191088113
C         9.14985203017537   21.74365240445707    0.74372559059075
H         9.81561611183664   22.56615660611674    0.52941856969216
C         8.01938462467852   21.96259778808514    1.51196124260030
H         7.81356906584287   22.95631454366633    1.88455079164693

