77
CSD_code = GUYFIP | q = 1 | S = 0 | Stoichiometry = C29H40NO4PRhS(1+) | MND = 5
Rh       -2.24812707271286   -1.14015325633876   -3.73854428973802
P        -3.00196308982000   -2.99969356960554   -4.77341523535425
S        -0.01960642852542   -1.84454823686011   -3.82126483519168
C         0.41063500972481   -3.47438923331950   -4.56030133338074
H         0.73131662472537   -3.29259039747001   -5.58600948905324
O        -1.81576860428411   -3.90430896942565   -5.42622984913429
C        -3.59256773765790   -4.15421824655071   -3.48847773388019
C         0.69843460036638   -0.63461571855776   -5.05942560985488
C         0.53829803939896    0.73361329589577   -4.41094571875704
H         0.95002893804588    1.50258240783746   -5.06087651929636
H         1.05882206210799    0.76873982897922   -3.45712976264810
H        -0.51368480693360    0.95206181953933   -4.23510679053428
C        -0.78653100293920   -4.41791238333327   -4.59422212112612
H        -1.16102333811957   -4.55231328562087   -3.56824195058371
O        -1.69645583135864    0.40601256520297   -2.23305694132828
C        -4.13830690867989   -5.38896030090111   -3.81092906270123
H        -4.25951980968169   -5.66647813505293   -4.84792988024234
C         2.17389235060387   -0.93467724975525   -5.27296530178292
H         2.60739412563263   -0.15430176314725   -5.89566200332164
H         2.33899613707718   -1.88430802617763   -5.77455304570552
H         2.70428137200004   -0.94066253191996   -4.32371953494969
C         1.53759392102931   -4.08625892819280   -3.73324428415181
H         1.19090401367101   -4.21375517349931   -2.70533999364746
H         2.39167161294934   -3.40913749649320   -3.71554416050278
C        -5.09836228618232   -1.31461487727571   -2.98412128779075
O        -5.35318501744509   -2.17963106536743   -3.79932610422164
N        -3.91336872166477    0.68827657289721   -2.16032395256843
H        -4.73245947966890    1.00392978958378   -1.66154093058660
C        -3.47100127584494   -2.57499826687952   -7.42777215086778
H        -2.46290042781450   -2.18842146502033   -7.40271176981026
C        -5.34538880668644   -3.54841121780774   -6.27668864672919
H        -5.80769475855482   -3.88771276034284   -5.36471968853109
C        -3.33726201926379    1.43533322704654   -4.98371754358039
H        -4.22531538919662    2.01884513825282   -5.23346134142364
H        -2.72543784933936    1.38624514563201   -5.88338658812813
H        -2.79203182856415    1.96471928472859   -4.20469022405873
C        -4.04896649911701   -3.05455044761385   -6.25662300886205
C        -3.38090616370627   -3.81188946875465   -2.15761170846901
H        -2.91603647047662   -2.85050462011552   -1.91883763110637
C        -2.67605969194432    0.93288528362274   -1.70190633873827
C        -2.54783728274566    1.88387939088337   -0.55145973243458
H        -1.49714932126158    2.07215156207387   -0.35007011680904
H        -3.00713348906290    1.45400704494662    0.33662125059128
H        -3.04966596712657    2.82249218804759   -0.77540004316013
C        -3.77285464090283    0.06317798720154   -4.55909203987099
H        -4.31661537141087   -0.49100190131118   -5.32387913557310
C        -4.10683261706825   -0.25583604321675   -3.22218417352189
O        -5.70035551481262   -1.21828755580408   -1.79704828920047
C        -6.04762360423501   -3.57838365478789   -7.46961623225282
H        -7.05393474466730   -3.96886679985948   -7.48630740189012
C        -0.37185211516183   -5.77562480417960   -5.16190966787187
H        -0.05792921028151   -5.63605625169735   -6.19802605716412
H        -1.24436703686998   -6.42995532239092   -5.16218085506947
C        -5.46832200199230   -3.11015530643989   -8.63730837660888
H        -6.02233957080276   -3.13549029994551   -9.56321276815139
C        -4.17816006786510   -2.60504484614060   -8.61528143625782
H        -3.72549999170724   -2.23489711387825   -9.52281825683640
C        -0.10249134563680   -0.71442947373481   -6.35000487089845
H         0.23479110676876    0.05611526017711   -7.04116549542144
H        -1.16529596226628   -0.55878219725408   -6.13390204020026
H         0.01519424670807   -1.67854862237406   -6.84062302927391
C        -4.51481301266267   -6.25595155766295   -2.79891071421129
H        -4.94997607446317   -7.21247249155718   -3.04559329724213
C         0.75987440915126   -6.38580248811190   -4.34307481724443
H         0.41135756240955   -6.57550746111276   -3.32582835627568
H         1.05199319015411   -7.33990622921350   -4.78134292425552
C        -4.33232711420262   -5.90046733009858   -1.47195644742600
H        -4.63178078434204   -6.57726572429243   -0.68644510957752
C         1.95369598494373   -5.43865692464725   -4.30584979181033
H         2.34539733005786   -5.30415277665385   -5.31612282816786
H         2.74905052061668   -5.86223829227052   -3.69257044769650
C        -6.67781854791319   -2.21392872587412   -1.50791825553202
H        -7.03161987139441   -2.00479662737853   -0.50210805638460
H        -6.23051605620813   -3.20804220089056   -1.56231603863360
H        -7.49889817257142   -2.15353495762783   -2.22384216914313
C        -3.75441542283653   -4.68156194472365   -1.14918954516245
H        -3.59436692961727   -4.41490477583127   -0.11498807091675

