49
CSD_code = GUYHEN | q = 0 | S = 0 | Stoichiometry = C22H14F6N4S2Zn | MND = 4
Zn        5.94675184778523    0.85721427809081    5.07385793136897
S         3.93443473012837    0.51824051807942    3.69656570214774
F         7.74516537319028   -3.71741206417959    0.33083402182133
F         9.19333001522994   -2.52619326975349    1.38634926718558
F         8.25476735144836   -4.19321515082354    2.36486535424066
N         6.27195298042019   -0.56496942769748    3.53260956400251
N         5.08627064519044    2.55475838886907    6.10142050740194
C         5.02675539220809   -0.56832550046663    3.00624628772484
C         4.69380215805665   -1.43551950524267    1.94614995809913
H         3.69071728424863   -1.41106226547058    1.55373677195349
C         5.64480193979120   -2.28424725762075    1.44923913510053
H         5.42206674103719   -2.96099623393482    0.63843414094942
C         6.93182654555371   -2.26174342186549    2.01113300764243
C         7.18792705920756   -1.38817719148849    3.05445892055159
H         8.16345698029521   -1.34291861463601    3.52160187031938
C         8.01613895025392   -3.16738537289565    1.52292074092976
C         4.11018384925762    2.47980193385978    6.98990981710096
H         3.91185483757283    1.49735820767021    7.39381989188529
C         3.37186545917460    3.58189228143217    7.38936145152060
H         2.58421763884083    3.47602872619193    8.11749340335639
C         3.66391519744217    4.81021606208325    6.81786006259334
H         3.10005239185446    5.69136790524308    7.08473167225798
C         4.68939254995082    4.89042662553978    5.89194121320702
H         4.91902187456745    5.83124970148373    5.41871110880285
C         5.39485815467126    3.73482617681790    5.55961677636152
S         7.95901143564475    0.51879590509067    6.45137210950833
C         6.86696530127691   -0.56818325103648    7.14150766204600
N         5.62176463011332   -0.56504556602566    6.61514943932452
C         4.70608707778082   -1.38875856925583    7.09298231059679
C         4.96251482976057   -2.26265921411625    8.13595917487939
C         6.24951924936653   -2.28485433102866    8.69791315832126
C         7.20019706785633   -1.43555405355158    8.20136317397406
H         8.20326749218184   -1.41084696786561    8.59379933732450
H         6.47250063210814   -2.96182823349106    9.50845381524569
C         3.87865881044373   -3.16908901437575    8.62374251592070
F         4.14944559064676   -3.71865034384933    9.81610297564876
F         2.70086270637700   -2.52888127147688    8.75952793368024
F         3.64138186632582   -4.19532130574873    7.78188802226408
H         3.73053963662274   -1.34370467451962    6.62586822967215
C         6.49945788986080    3.73450133235981    4.58701774242286
N         6.80758652823211    2.55418781409230    4.04549071706126
C         7.78368099707440    2.47864772566966    3.15706355751761
H         7.98160531505449    1.49604942377948    2.75333842737770
C         8.52244711560507    3.58035016402736    2.75737151455860
H         9.31004102044439    3.47399555083306    2.02925402973719
C         8.23086727263882    4.80892164724665    3.32857380052990
H         8.79506102601928    5.68979557143414    3.06149624458258
C         7.20539598239993    4.88974221239181    4.25445621010418
H         6.97611257885332    5.83077391976741    4.72743931920095

