51
CSD_code = GUYHAJ | q = 0 | S = 0 | Stoichiometry = C24H14F6N4S2Zn | MND = 6
Zn        5.80242035529255    5.91261420839381    7.34762911289313
S         5.64912200888850    3.57568372673268    6.63521695168331
S         8.01009589378949    6.92224266672405    7.94510558409284
F         4.07216693756581    0.90990370045821    7.14248621593211
F         3.75789570462825    1.61234654652379    5.12730762192005
F         2.10918068257722    0.88377799301734    6.28520127184532
F         9.99785263646641    7.26192820727897   11.92603341073724
F         9.30816858469289    8.50736315669470   10.32495016554229
F        10.43089012258042    6.71552964812742    9.90096985125344
N         3.79263983286624    5.17247246971072    7.45288727721821
N         6.28507398862457    5.68710395145341    9.41567195093438
N         5.06914900819801    7.97166564815372    7.59461132076853
N         5.84143998121069    6.70687914868039    5.32912833203409
C         4.03938364875420    3.92255480655970    7.00834970416875
C         2.97293370933465    2.99832394814837    6.88361409478932
C         1.69711805610349    3.38312885162391    7.23480583471666
H         0.87753402502273    2.68592155396046    7.14661811473686
C         1.47838850373535    4.67747054383498    7.70069440929818
H         0.49231404393631    5.00454797396890    7.98374219165144
C         2.56298640627811    5.52876138997540    7.78306925608993
H         2.45170025863902    6.54809306063629    8.12811210530756
C         3.23934263376510    1.61491203145662    6.36489881306238
C         7.47541996323353    6.32372336693439    9.43040764686500
C         8.18691917769668    6.44797859068928   10.64804151009513
C         7.68017074420457    5.86942747559202   11.79203082142930
H         8.22109412137623    5.94814045615926   12.72307412807505
C         6.46850797059118    5.18545947896743   11.73306736199245
H         6.05545382864582    4.71352604924280   12.60818470400497
C         5.80986858998123    5.13558033301002   10.52019845132060
H         4.85716297078283    4.63271272298553   10.41722250545999
C         9.47255974251036    7.22080597482451   10.68510118693801
C         4.73136625817326    8.57314707381278    8.71219745443237
H         4.49917215699570    7.92847394541773    9.54883672088449
C         4.67245485272106    9.96298626237444    8.84419029589627
H         4.39626355012963   10.40179383704328    9.78979491021768
C         4.97350666267176   10.74604740882573    7.75625337375056
H         4.94228956428670   11.82416608811890    7.81656434924613
C         5.33397850835143   10.12891006779380    6.54698886652745
C         5.37247435707875    8.71704719892753    6.52168644803624
C         5.76910873593366    8.04612970935326    5.31778204308088
C         6.09176715868073    8.80752491508158    4.17305003318278
C         6.48284366742130    8.10826377028664    3.01860325934270
H         6.73852708261680    8.65807789895974    2.12438037170893
C         6.53890667667295    6.73624796737266    3.05239438959397
H         6.83599104282734    6.16628269142279    2.18669875018649
C         6.21357952799688    6.07359964927031    4.23965041250934
H         6.25919199142188    4.99486943698570    4.30585661139988
C         5.66442403949129   10.86369197723861    5.37241154076328
H         5.62589699539407   11.94192424060970    5.41909507899552
C         6.02384735428610   10.22914570676077    4.23137945094917
H         6.27755568488491   10.78779047381734    3.34265373243524

