49
CSD_code = GUYHUD | q = 0 | S = 0 | Stoichiometry = C22H14CdF6N4S2 | MND = 6
Cd       10.84922957129599    7.66379098152638    1.00379687849069
S        11.76108517901871    8.88830341598756   -1.03634250407579
S         8.85552357635709    8.17811975382467    2.50274164161167
F        11.15227346822802   10.18138035388605   -3.78967041794981
F        12.58891383681615    8.58977615819025   -4.01383150954496
F        10.97296106495737    8.78761212281775   -5.40670778300148
F         7.35484552972773   10.28214356264655    4.22352390184724
F         7.93217445375845    8.59371794497625    5.43302605271343
F         8.18850259024214   10.58789463785896    6.17326033532918
N         9.88165574698916    7.09072287344061   -1.09939779663626
N        11.25051070001746    9.13797479027638    2.83469927579640
N        10.73953400874491    5.31313163138687    1.76535462565890
N        13.04692718730666    6.55511852196974    1.21577219060960
C        10.62391248587429    7.93099866029462   -1.85264790748527
C        10.42690086211674    7.98185145772730   -3.25438569232081
C         9.45243800530274    7.19529957904435   -3.83256119734932
H         9.28839423801907    7.23380273558530   -4.89899158748124
C         8.68756641878821    6.35757298126249   -3.02725036025850
H         7.91423796411978    5.73842147161793   -3.44935040124507
C         8.95158960051967    6.34237066836020   -1.66973296468153
H         8.39163125864407    5.70205465209495   -0.99864920161269
C        11.27969645021050    8.88368377982412   -4.09777330342620
C         9.99408451042313    9.12396136985694    3.33037925998328
C         9.68308533573641    9.88159625490503    4.48588127727561
C        10.66132920039174   10.65563556471834    5.07451926760459
H        10.43189321727415   11.24333923228808    5.95065830055039
C        11.93975056455314   10.66912568639598    4.52618651618513
H        12.72145162223768   11.27017112492376    4.95893489623199
C        12.17727742270098    9.88573060144649    3.41138852873255
H        13.15735693356243    9.85265691761908    2.95092491810295
C         8.29838938601535    9.83278253153744    5.06225515836356
C         9.55824316313294    4.73124228983171    1.87962538691801
H         8.70469004805755    5.39889038950784    1.89811787888465
C         9.40591325526799    3.35616562185031    1.99203831657707
H         8.42514487583760    2.91964794890457    2.09151862031488
C        10.54395421773841    2.56639848708373    1.96729820694948
H        10.47146371318138    1.49108869186410    2.03576756121912
C        11.78236306042624    3.17579909969232    1.85440371763463
H        12.67703302560778    2.57545689384668    1.81771439412647
C        11.84606526594899    4.56675992642393    1.76669716430961
C        13.12455592110769    5.29965598911512    1.66194880057976
C        14.34879871208705    4.72930271111362    2.01194845065698
H        14.40203184262533    3.72739604462759    2.40633414953745
C        15.50438212079542    5.47846519137396    1.86675289962534
H        16.46254790452322    5.05668796966724    2.13179125616264
C        15.41055044899107    6.77073618635979    1.37610875581813
H        16.28869576508536    7.38047006153134    1.23698150447062
C        14.15093172719555    7.26697465136906    1.07013417187525
H        14.01721254240613    8.26781982752494    0.67660836631622

