39
CSD_code = GUYLAN | q = 0 | S = 0 | Stoichiometry = C14H16MoN4O4 | MND = 6
Mo        2.36468472935256    5.53069515595121   10.33773640003370
N         0.46648297011562    4.45300161291618   10.16303660592785
N         0.09761868955045    3.69342010928666   11.20004171786041
H         0.69699070389251    3.63613754006037   12.01206587671622
N         1.33094581457533    7.19381355007768    9.42560287084493
N         0.13921252554673    7.57279470875633    9.89907348753166
H        -0.24984665275196    7.11870921903282   10.71406248761206
C         3.00511033816850    4.79656222365656    8.63631862869094
O         3.49982586626988    4.31308341823885    7.72608441628161
C         4.04162175674292    6.47908831245029   10.54568121410575
O         5.05390374954738    6.98776628571027   10.71860374470882
C         3.20802220585407    4.01890489820271   11.20191846505221
O         3.72211875882778    3.14648724486358   11.74532091114999
C         1.85848691003692    6.18588876795102   12.10645729420390
O         1.66944535004723    6.50033125080766   13.19504401562422
C        -1.05165697686131    3.02458176047167   10.96197648911310
C        -1.44396159878652    3.39523647814915    9.69492407314973
H        -2.31311368128625    3.06662849982946    9.16346509358855
C        -0.45979856958146    4.28733011060461    9.23062510354898
C        -1.65765351244062    2.10203795523653   11.95300249998208
H        -0.99757336411530    1.25442657573667   12.13528593462256
H        -2.60822189691933    1.72999469272124   11.58256708934241
H        -1.82279944249314    2.61087755644729   12.90204770725896
C        -0.40632126378895    4.95922445092497    7.90473171187307
H        -1.00184557837535    5.87357255620667    7.90239174299724
H        -0.80461854119570    4.29781231197881    7.13854088746368
H         0.62404170194370    5.21356008057379    7.65841201393692
C        -0.38414685246665    8.60539681860233    9.19997049303909
C         0.53453212457376    8.89180798268687    8.21562762517463
H         0.46332771958513    9.65325087564904    7.46664260952294
C         1.59463805191104    7.98431488445804    8.39875391531799
C        -1.69195143533998    9.21909897697382    9.54110246583053
H        -2.46536673985074    8.45698687614720    9.63275691635345
H        -1.98311310167548    9.92491914040676    8.76887869493745
H        -1.62768720525141    9.75167421709256   10.49012925931852
C         2.84361230083006    7.87576131729891    7.60365746771517
H         3.69432448307302    7.71671652805493    8.26602561838135
H         2.99925448352158    8.78191902162007    7.02414041824110
H         2.79087517933112    7.03158603422163    6.91569603297937

