43
CSD_code = GUYREX | q = 1 | S = 0 | Stoichiometry = C15H17CuN3O7(1+) | MND = 5
Cu       12.25330777300865   -0.58153041910422    6.69490701445299
N        11.97139766720176   -2.41061898823199    6.87979480213649
H        14.45522541061325   -0.05907550507204    6.23420044255303
N        10.30988443329103   -0.61066609457390    6.83206537766471
H        10.08026597228221    0.21008093436503    6.21601624797472
N        12.15010991321608   -0.97319752291541    9.03474678504236
H        12.58050211189164   -0.27634800729926    9.62803274112601
O        12.51819804127010    1.18833418668426    6.27215630094898
O        10.47225170253587    1.63207235949554    5.48160058603400
O        10.92249308889222    2.94083748974004    8.52939900577872
O        11.25916285693046    5.13095162087250    7.96277335204036
O        12.06609852890943    6.86512505603667    1.64243985699906
O        10.53853750664204    5.16461157084997    1.56697879840249
O        13.99464368942497   -0.86614382900866    6.47916023175788
C        11.00158727901121   -2.79136012164063    5.90711769426857
H        11.37979935852996   -2.55081017172685    4.91158362106392
H        10.74485468421738   -3.85496647060412    5.95387876182830
C         9.80265335551480   -1.87839485752262    6.27078676611376
H         9.18119427978704   -2.37661146437695    7.01869989282898
H         9.19309262572127   -1.68478723613157    5.38619019631101
C         9.92401768851653   -0.28866275601016    8.21090138813244
H        10.12838879943199    0.77274968288821    8.36004267905320
H         8.85148499678693   -0.45739640785784    8.35254640239461
C        10.70928792249827   -1.08979367591463    9.26600677826113
H        10.42180767900225   -0.71154664585580   10.25162536243707
H        10.42290529835034   -2.14362165663579    9.22119802155165
C        12.89013621773698   -2.22998979061534    9.03850499773104
H        13.94661744403658   -2.00566169284906    8.85943901543654
H        12.79972589387999   -2.79901217034405    9.97378362960463
C        12.35689953934523   -3.03572631779713    7.90021731957892
H        12.21635818181396   -4.11093511948222    8.00616640714901
C        12.12844845655468    3.30825969819244    5.38904642775024
C        13.40027532635090    3.80625316704272    5.70154066359929
H        14.15300454513299    3.22895835950914    6.20782498803295
C        13.57692879195782    5.09099814009684    5.29867174114469
C        13.06078441925050    6.18110441965948    4.69764968454156
H        13.37747694255689    7.17115332519020    4.45773133908038
C        11.94848149649817    5.43411387614136    4.53159817482972
C        11.32242312752839    4.24627838267935    4.72355742025330
H        10.32043162434642    4.03347057111068    4.39716595022132
C        11.63567092332720    1.93392880746752    5.72590748334824
C        11.08869828805964    4.04056600056476    8.24852963522951
C        11.29888611818043    6.01840927302021    1.59891601519693

