50
CSD_code = GUYRIB | q = 1 | S = 0 | Stoichiometry = C19H19ClN5O5Zn(1+) | MND = 7
Zn        5.92324296995755   36.93162723834159    0.59881613696858
Cl        5.57426739416857   36.20371313922495    2.63201553542901
O         6.58975130255459   37.50037957291340   -1.42369793399338
H         7.25663808906455   36.80600019705124   -1.48527138170468
H         7.08502642353472   38.32387155066339   -1.38796595313621
C         6.48015182120107   34.09976182496862   -0.13360931360540
O         7.14112311474816   35.11931201564116   -0.01056396525137
O         8.03483474066258   37.66003637338989    1.00038673846533
N         5.13334428968561   34.17922509312687   -0.41822058923522
H         4.56551122104210   33.34033948267837   -0.49931283509171
N         4.59258598803772   35.39525081083053   -0.36650387540451
C         2.29450746442691   34.73924748472471   -1.02055467792192
H         2.65429800319251   33.71701052171451   -1.10173374576969
H         1.47343848325829   34.76005478252072   -0.30594856080367
H         1.90603959802142   35.03571958267118   -1.99381484313232
C         3.37116360207633   35.68676326534619   -0.59587023747277
C         3.02915884671386   37.09467623219164   -0.34830089748988
C         1.78054284763514   37.64504502960045   -0.64432515531504
H         1.02048166460008   37.06841676091242   -1.14391652524635
C         1.53369970340077   38.95965370061612   -0.28326061836107
H         0.58346543798676   39.41622025801945   -0.51391749616880
C         2.50315639111293   39.67533889096138    0.39932327669636
H         2.31549461037643   40.68913293628746    0.71131647104092
C         3.72626771154040   39.05498773891937    0.66040272973897
C         4.79520169404567   39.67530955382747    1.45562541078212
C         4.48262237119396   40.87287201243036    2.29478139447457
H         5.25765370751576   41.06717984979539    3.03180589624959
H         4.38858030379409   41.75561669154536    1.66245095500464
H         3.54144607596895   40.72726013977160    2.81994457740004
N         5.91619162463473   39.06865543109705    1.37955186536109
N         7.01823342769174   39.36235348801338    2.06991108251365
H         7.00404767941242   40.01304156859360    2.85043908919728
C         8.08591758692766   38.50878558782141    1.87690996201073
N         3.96824286509802   37.81334736437441    0.25627574244884
C         9.23299822190298   38.73144433819642    2.73439930011077
O        10.31646066850928   37.94536425669433    2.55606082030560
C        11.22585265245141   38.30488190008646    3.45035358787506
H        12.15970674182553   37.77689081341951    3.45095357041141
C        10.76793836321588   39.33153421160078    4.23405097257936
H        11.28899614695771   39.81679574853997    5.03267803311256
C         9.47234926716585   39.61264223446497    3.77338906474109
H         8.81567293635181   40.36307459056535    4.16462423643843
C         7.02419872192940   32.75943221352487   -0.03424456588952
O         8.34862810498867   32.63239197560786    0.19718991008233
C         6.44954270171936   31.50332398496705   -0.10708872012260
H         5.42034672834935   31.25864137742082   -0.27565989638542
C         7.49143190745451   30.58431899674972    0.09249002543803
H         7.41792210982939   29.51697317027054    0.10372448005507
C         8.62173169157209   31.33792339166739    0.27258474063850
H         9.63989398049610   31.05356062563959    0.45522618193090

