141
CSD_code = GUYYEE | q = 0 | S = 0 | Stoichiometry = C64H56BF15N2Si2Zr | MND = 9
Zr        4.30902032714917    4.73447031865812    5.75339750748065
Si        2.44434188381239    5.81232932817204    2.76348718622887
Si        5.55123994668813    1.66010248927473    6.91685188248605
F         9.42445363933398    5.07316951502203    4.63834555547943
F        12.01815056149930    4.88130889158520    5.00913778276216
F        13.67726576672728    7.02382905858395    4.55101400545485
F        12.57450208729685    9.38441660301441    3.69153391095818
F         9.95079318226010    9.58626523957906    3.30396353348153
F         8.48528178574610    5.61152888913464    1.58171586907706
F         8.54080801547028    5.89241683266736   -1.06430904489296
F         8.15851155898069    8.36084266816972   -2.20608276689245
F         7.74252588806931   10.52273763593324   -0.58022505589127
F         7.66517624219727   10.25142352959328    2.05176232866001
F         8.93673529650601    8.52551868535257    6.21892535062492
F         7.83537325378842   10.41981401471084    7.72249400494286
F         5.59012051547103   11.74425632717455    6.88465800803782
F         4.45236301876962   11.04751276232489    4.49014927042293
F         5.53537080286577    9.12154450043498    2.99189841685673
N         3.02295918609321    4.95567824424064    4.16681805241915
N         5.46524665891480    3.08986862749662    5.94582659185362
C         2.64581681892321    3.60168253902077    4.17607454368135
C         3.56026715208334    2.59427080731810    3.86800344273387
C         4.99267828808023    2.89273535946275    3.56262398962908
C         5.90358716961356    3.01223538468157    4.61656537156073
C         7.29306445898767    2.98115031486768    4.33319464171190
C         7.75469870599641    2.92289380369839    3.05199812962157
C         6.85950186558220    2.89536256911331    1.96109658624733
C         7.31541528200904    2.88062771191420    0.62820757722858
C         6.43318275384237    2.79851804575880   -0.41269725517334
C         5.05701846936709    2.69960679645514   -0.15865751423766
C         4.58413758687902    2.71565306627957    1.12381031185967
C         5.46350825758199    2.84227496600857    2.22105148239880
C         3.13890971553865    1.23601359954979    3.81942452780578
C         4.01354035861013    0.18909842701293    3.45299074597765
C         3.58450895020426   -1.10860121352994    3.42055233766637
C         2.26091254690218   -1.43227697952693    3.75136790474039
C         1.38279123043750   -0.44155744704752    4.09205149889692
C         1.79193120715538    0.90557076151257    4.12707523932728
C         0.89113124400691    1.94444236833728    4.44852793774029
C         1.29980447476640    3.24321144925943    4.46029978265859
C         1.30836843162631    4.68743127605142    1.70357835468840
C         3.93574663578659    6.24128921636058    1.62978518081242
C         1.40366261819516    7.42795564682971    3.06752528974919
C         1.26434163958438    8.15463994902175    1.72896979732308
C        -0.00517399967303    7.11007429117379    3.57614354871752
C         2.07090507635361    8.39090060299103    4.04856925325824
C         3.77176500023047    0.97781377893593    7.20129000883404
C         6.56050280674577    0.25934069975492    6.09789934059897
C         6.40358413679761    2.11488545530845    8.59974600727084
C         5.61946437504756    3.21379859276599    9.31901512545539
C         6.46831332233161    0.88977937726661    9.50947412280580
C         7.82853698617315    2.61405192541729    8.35248805109871
C         2.83626079533825    4.25240567116613    7.35842028351048
C         2.38199920914478    5.54596345249953    7.90097408221537
C         2.71769112499107    5.98393018592022    9.18902350442043
C         2.26516428132200    7.20002938602423    9.66810645706555
C         1.45447561489165    8.00757163709303    8.88643430554577
C         1.09171011263561    7.58300457376394    7.61636267251074
C         1.55076925670114    6.37384601783259    7.13042742840035
C         6.89401669858547    6.29827808921045    3.81475680666222
C         6.25479441953857    6.35351517038167    5.14756901088925
C         6.90768181681337    5.87614505145613    6.30008289615817
C         6.43625597947362    6.17954597074576    7.57024018688093
C         5.30049881017669    6.96852445174017    7.73626904429819
C         4.60139823159226    7.40842707348507    6.61566182149126
C         5.05089843680650    7.07783294142056    5.33413922344312
C         9.53875088533133    7.34155702378729    3.92769866976151
C        10.14998102085938    6.17533968882934    4.36566543522157
C        11.51961980702760    6.04966037553423    4.57904320988552
C        12.35998927517185    7.12766706894794    4.35246297967289
C        11.79563716829375    8.32039528062566    3.91735554026868
C        10.42399190631782    8.40085254567882    3.71566151433301
C         7.98945555151142    7.89733895059028    1.95322679575922
C         8.24746820630125    6.83961257385135    1.08396071569077
C         8.30302353787827    6.96653853988280   -0.29739772841145
C         8.11714487700416    8.21404190806206   -0.87783060203543
C         7.90165801423869    9.30562668809537   -0.04841439849542
C         7.85059512370355    9.13679027296790    1.33374628574180
C         7.35967628856163    8.81939783889818    4.46751102088504
C         7.87149682561701    9.17458252302520    5.71070595321891
C         7.30388706332633   10.15036942125598    6.52267039869418
C         6.16149778384254   10.81913951836624    6.10637914228409
C         5.59401264944920   10.47065577080239    4.88819365114031
C         6.18852617233008    9.48344940370253    4.11455372942365
B         7.95747245840568    7.59788760694939    3.56791621467724
H         7.97636760405017    2.98757988408783    5.16892090473646
H         8.81496767351799    2.90349879726063    2.85473331326757
H         8.37701838956099    2.94675402178179    0.44702910304958
H         6.78937376983771    2.80164505174359   -1.43121995358404
H         4.36909286995967    2.61180732280692   -0.98624779754134
H         3.52634828167421    2.63340024293308    1.31895699464676
H         5.02965656140435    0.43053114623703    3.18168818464304
H         4.26685007494741   -1.89565201877606    3.13596952780500
H         1.94113631933379   -2.46292556576885    3.72599292989176
H         0.35655829139869   -0.67513352990652    4.33575360107518
H        -0.13547813275450    1.69115073602443    4.67047171653262
H         0.60026387735038    4.04154610467934    4.66918084256226
H         1.78278949218317    3.73328150856492    1.50406861873339
H         1.09427822885024    5.14792512997162    0.74472397905021
H         0.36032181836157    4.47254796652707    2.18447816042439
H         3.59529575146786    6.33042476701137    0.60400427704715
H         4.40471638209890    7.18660392607839    1.88220493971906
H         4.69236867154417    5.46041896224878    1.64426019479151
H         0.77711485999524    7.52610302512393    0.98922420642993
H         2.23586063301345    8.44808512995626    1.34308116976500
H         0.66509011943247    9.05600190421104    1.85283135724061
H        -0.55591544946679    6.52460382463678    2.84523955042223
H        -0.55902279234332    8.03252269607445    3.75008412552527
H         0.02060113856031    6.55447933509886    4.51054426122778
H         3.00754812512581    8.75940858473637    3.63945342357738
H         2.25008347092890    7.90791003224952    5.00697509797435
H         1.43410044271146    9.25900340132846    4.21876630343323
H         3.70256761555632   -0.05524406835358    6.87687701432637
H         3.48004988456280    1.00229988666319    8.24567503058211
H         3.03868770230873    1.54691837536521    6.63210370445285
H         6.60723174434611   -0.61409615021077    6.73938418390661
H         6.09521822273153   -0.04558736777680    5.16714964521358
H         7.57751128132599    0.55953417584994    5.87128037878058
H         4.67221502400160    2.82207628086334    9.68431254989686
H         6.17800977086409    3.58218765759450   10.18033537231988
H         5.42110791569889    4.04876724864941    8.63835944397352
H         6.90392441713833    1.15184572166673   10.47320103625103
H         5.47632019475011    0.48169279519800    9.68418605661430
H         7.08019994042071    0.11144140902533    9.06366361554289
H         8.43373652703793    1.83414663034752    7.89877250134067
H         8.30327638219983    2.90297333903122    9.29007160361821
H         7.82246546594515    3.47516948229719    7.68855481538027
H         1.99249183785715    3.74799382308120    6.86021431266832
H         3.19478139980195    3.60357569367011    8.16393126213328
H         3.32678704073674    5.35061635298307    9.82171502664709
H         2.53319682854501    7.51506753173821   10.66613242210540
H         1.09596840953873    8.95071767152660    9.26771416159178
H         0.44327343171498    8.19689456921306    7.00870219373328
H         1.25751424723367    6.02698814899175    6.14357272071210
H         7.44179670955990    5.37287772612608    3.67785537698583
H         6.13693361750882    6.37257868717178    3.03630299857891
H         7.85686194401692    5.37099382345155    6.19229298393069
H         7.01262345296851    5.88490113672312    8.43660051055999
H         5.00060487785320    7.29023188474592    8.72282350400480
H         3.76272236653440    8.08397507418748    6.74348520220246
H         4.54627268775152    7.48501009758097    4.46397733590447

