56
CSD_code = GUZCIP | q = 0 | S = 0 | Stoichiometry = C24H29FeOP | MND = 8
Fe        3.19609321374191    1.57534106772069   10.34688640234163
C         2.42704416514204   -0.19915350681403   11.20884916854017
C         1.76075932330360    0.92866799656771   11.79048295769964
C         1.09655012834553    1.62084174846051   10.75262216428408
C         1.32640869312631    0.90045061895805    9.52388533473926
C         2.09278194841662   -0.24556928843048    9.82183594018958
C         3.12217298532333   -1.27655636594510   11.97953875666585
H         2.39308223860996   -1.96209289183449   12.41616899441857
H         3.71377967211929   -0.85023065695757   12.78642415441958
H         3.78448234374327   -1.84784392272669   11.33422888981013
C         1.70067316004907    1.22484296859193   13.25572658878794
H         1.40928661427347    2.25659461300030   13.43517347929879
H         2.66801835128953    1.05385941148071   13.72259924208199
H         0.97094815467554    0.57391766708125   13.74061265950919
C         0.12590446400229    2.74951792319641   10.90016293496286
H        -0.89501737966021    2.36240443793601   10.90493347291391
H         0.21422950727629    3.45656847073276   10.07571949141162
H         0.29016578195198    3.29424237249010   11.82649076763186
C         0.66399664982824    1.21084602762973    8.21940288105361
H         1.27837746804986    0.88379312115609    7.38325583319732
H         0.49300134489419    2.28112595825826    8.11828348594975
H        -0.30226066488415    0.70718833107006    8.15184006448837
C         2.41773290429257   -1.36447970691614    8.88689021500851
H         1.74561246066083   -2.20468770661527    9.07055921487024
H         3.43872484953999   -1.71147988583694    9.02662724177982
H         2.30062571299010   -1.05400878752654    7.85210057450832
C         4.49657974867540    1.88919456681543   11.43627609156123
O         5.37962846083483    2.00966928616003   12.16741023551999
C         4.71887380209839    0.94474762828433    9.21517488620857
H         5.58294718079256    1.59841879015940    9.11385281943818
H         4.31466574201721    0.78796206775683    8.21521266314427
H         5.07811565267410   -0.01003816243508    9.59335824752793
P         3.25142606537236    3.51286120287363    9.46529970786631
H         2.48810842827332    3.85654252174283    8.33278050354511
C         2.67681003330529    4.88549460802929   10.52250245253852
C         2.71706681209017    4.71600666804411   11.90073187485571
H         3.07581841064653    3.77223703548913   12.29056227028100
C         2.29554528924441    5.73064894242916   12.74036060369445
H         2.32697571607048    5.59597647506872   13.81201104981124
C         1.82705472709126    6.91925383979055   12.20426065820931
H         1.49034492500369    7.71063832660827   12.85770378486140
C         1.78721297920644    7.09432175168005   10.83007543024914
H         1.42173284283595    8.02250425335525   10.41518795973320
C         2.21233656886501    6.08202834966413    9.98920678288615
H         2.18463265389029    6.21337217881550    8.91533552575121
C         4.80050032710387    4.23943466945497    8.84667288584827
C         5.74500041704824    4.69869095548510    9.75934066175068
H         5.52080220337731    4.65787924738034   10.81672282431001
C         6.95464564854492    5.19797901217948    9.31500948979055
H         7.68455990310574    5.55658523272624   10.02607377649906
C         7.23380909437848    5.23350243992365    7.95771794676524
H         8.18069662219934    5.62111673493256    7.61130759324630
C         6.30145770349861    4.76784171769206    7.04538850178831
H         6.52224123748661    4.79110958491336    5.98784619135889
C         5.08855005746707    4.27064657858702    7.48701819549060
H         4.35958665575985    3.89817348163507    6.77949747489305

