43
CSD_code = GUZGEO | q = 0 | S = 0 | Stoichiometry = C18H17FeN3O3S | MND = 6
C         2.55936456641361   15.48258397280924   11.20221338543199
H         2.55576465200991   14.95070997985900   12.14244106005560
C         3.06902321476087   16.76010845632005   11.11554858460199
H         3.47443882788884   17.24142522908495   11.99021203935074
C         3.04380867110168   17.41046075391750    9.88474752232002
H         3.43002144643505   18.41296529733322    9.78406504197384
C         2.51643836947424   16.75223493826108    8.79712667224113
H         2.47237385279874   17.21338239774162    7.82342127949780
C         2.02268633759535   15.45364487808547    8.96954556777689
C         0.99990955375844   13.43029353957412    8.22211694034930
C         0.02888349971216   11.69707927069453    9.80812720333582
C         2.56494329286200   12.15042037981841    9.46356833667054
C         1.55974814633802   12.40349962600845   14.49386260752081
H         2.59764058491440   12.47418921325210   14.81879774076375
H         1.16575733819018   11.42287195619936   14.75973628972071
H         0.96492015523112   13.17280515637444   14.98825279334040
C         1.47554924117196   12.58454367618317   13.07683693608431
C        -1.08946400107976   14.38661474383881   12.01276784037069
C        -0.81756652286648   15.68766286145287   12.45002404210366
C        -0.88480904985026   15.96817584421253   13.80815580778122
H        -0.66213357358885   16.97013747177601   14.14770964918830
C        -1.24827937341589   14.99624788333285   14.72093845567028
H        -1.30018112785133   15.23115430228387   15.77473330677204
C        -1.57747456706506   13.72934947443122   14.27189194203623
H        -1.90411142437027   12.97655618412402   14.97678598515198
C        -1.50813530985024   13.40865649096901   12.92410819167437
C        -1.89191777444895   12.03820793496339   12.46144817737555
H        -2.43995797282584   11.50883167524223   13.23769232820794
H        -1.00500785591638   11.45680077642787   12.20218040057568
H        -2.51183282758984   12.10500071518509   11.56934483863019
C        -0.51069729743649   16.79898471315904   11.49327428234267
H        -0.20074798874441   16.40629917825888   10.52879491012273
H         0.26353627471055   17.45444904185426   11.88849473103463
H        -1.41055658314811   17.39348427562744   11.33303415769758
Fe        1.17516412076209   13.01949094766601   10.08811726173826
N         2.04312865186399   14.82855902433884   10.16066331131257
N         1.49457867108149   14.72152356967582    7.96125125344764
H         1.42603135863763   15.09801171855174    7.02227279732564
N         1.41647629543295   12.72195288706696   11.93555884284218
O         0.55578122762856   12.79371256210789    7.29979351936180
O        -0.71364369437120   10.88153458359910    9.51736563856859
O         3.40486948535035   11.56993385870682    8.94170815637219
S        -0.95952089170364   13.98684855962767   10.28597017126457

