59
CSD_code = GUZHEP | q = 0 | S = 0 | Stoichiometry = C26H28ClIrN2O | MND = 8
Ir        2.63133837645159    3.31348326356144    1.60769222184827
Cl        4.65494167190493    2.34890736505350    2.29859106604410
O         5.69698789554926    7.56320824974856   -2.52960373438319
N         3.27088413189506    3.09528789691043   -0.30217501580652
N        -0.20505770557903   -2.30089446312630    3.15341151449784
C         3.15495363725282    1.94033477592166   -0.89125259815271
C         2.44513050360719    0.95868336131434   -0.10912306282803
C         2.05958947759995    1.42869769645200    1.17233844266658
C         1.39881278814719    0.54603834128444    2.01264328408726
C         1.08780518641037   -0.74571825819923    1.58541073251167
C         0.38157925592036   -1.60881256612489    2.45105666931099
C         1.46489819172890   -1.19150329828362    0.31289864602864
C         2.15151341784695   -0.34396711809366   -0.52388266072757
C         3.72903563188505    1.62465034826904   -2.23294754004421
C         3.88133671007418    4.20258257854385   -0.91325331506887
C         3.29896368149355    4.81816422584231   -2.01591177493154
C         3.87166959756349    5.94452162226243   -2.58194839603559
C         5.04824705870500    6.46657104463948   -2.05468976796524
C         5.16773449224208    8.22967670065738   -3.64971682408040
C         5.63390235383287    5.84322803606138   -0.94837537191655
C         5.05791648862826    4.73145719214987   -0.37943560340829
C         2.33365433470631    5.64394606951579    1.88608849013015
C         2.84672893590638    5.12224713493942    3.07364524415580
C         1.94039925037882    4.08884052948942    3.55091033766697
C         0.81480934645756    4.06133659285977    2.67865628609987
C         1.11110950365665    4.93293579902511    1.58010941563643
C         0.14744109190447    5.32318427493740    0.50468136279047
C        -0.50105773441972    3.38697666867535    2.91170365777067
C         2.04529902281811    3.46895421787039    4.90986684649564
C         4.06390281567243    5.55864907797104    3.81821375745528
C         2.85331644446098    6.81339437288687    1.11466269314957
H         2.46293286314691   -0.68705187794265   -1.49895672898853
H         1.22185587190121   -2.19832497885808    0.00739376664622
H         1.12119748739570    0.83864020866475    3.01406429377888
H         4.35354970006617    2.43779816248462   -2.59309163512555
H         2.92909997675619    1.44474213195446   -2.95046812882194
H         4.32995434041687    0.71984081787842   -2.16369448023539
H         5.12616317899324    7.57416253917128   -4.52561730259992
H         5.84926337699615    9.05444568440694   -3.85086497941858
H         4.16879988705424    8.62924570951806   -3.44598615681406
H         5.50506444532220    4.24910023191975    0.47646795772541
H         6.54754508515878    6.25833342761015   -0.55387321091879
H         3.38986499746202    6.40164514627539   -3.43187080211973
H         2.38225397939616    4.41785795867301   -2.42471035915825
H        -0.51844865140330    4.49850124075351    0.26026350280012
H         0.67169994555682    5.62666681572984   -0.39984381155019
H        -0.46161164420840    6.16541957907252    0.83956872487036
H        -1.23908348052154    4.13235502925836    3.21313783033746
H        -0.43002261976443    2.64440114554529    3.70121611589212
H        -0.86478193927906    2.89583169590750    2.01135807909804
H         1.78687306591947    4.20252547838735    5.67615862499282
H         3.06169039645160    3.12729472200271    5.09486135373011
H         1.37542504697272    2.61855392616274    5.01079335629828
H         4.59395854161337    6.34077732933789    3.28078801463941
H         4.74203068448923    4.71726419396710    3.96129110715729
H         3.78429835524253    5.93716874157502    4.80218742641477
H         2.37152166274079    7.72917216594039    1.46398954660069
H         2.64624997239614    6.70852826557800    0.05149873244269
H         3.92806961902340    6.92364277599940    1.23867415931474

