69
CSD_code = GUZHOZ | q = 0 | S = 0 | Stoichiometry = C20H44ClNP2Ru | MND = 4
Ru        9.72342064145909    5.39054590199163    3.18967834279880
Cl        9.10707330516487    4.36622217742477    5.11214181605620
P        11.91716734187960    5.52953990877763    3.74755718157405
P         7.62313930463257    5.46413996504973    2.33779753143543
N        10.23707553699986    6.20096347697905    1.59058546671070
C        11.57783169548987    6.67106901071078    1.27217965235201
C        12.66214664381548    6.01095523454222    2.12277970923782
C         9.33508067731814    6.62981323277454    0.53116922167943
C         7.97575319228722    5.93350891309746    0.58228155639004
C        12.85411180125162    3.94053317101872    4.14970056478919
C        12.61623728751037    3.57481492497725    5.61464753756274
C        12.13947933137170    2.90152215884930    3.27579692447519
C        14.35073075141754    3.93980157896935    3.84448774695469
C        12.39410212288848    6.94498179730098    4.90473192075775
C        11.87146317638700    8.19918458550528    4.19619492577263
C        13.87921130759855    7.09478971880153    5.21236287344422
C        11.58438678146336    6.77134778845630    6.19088733728235
C         6.67091431160765    3.84791894828609    2.12643508240254
C         7.79042967673448    2.83270852990059    1.86119846068714
C         6.00111104349009    3.48345562527378    3.45099906714044
C         5.64897888364369    3.80806721043933    0.99191280149376
C         6.51985695583563    6.86128262451797    2.97086806465969
C         7.32920667486221    8.13253753656388    2.69330863938799
C         5.13769556774196    6.96834141357420    2.33761056036286
C         6.41513727449237    6.70327951085677    4.48876618263154
H        11.60488609275766    7.76657867189048    1.39225557370543
H        11.79341901116187    6.47199272197320    0.20741157286198
H        13.53841406971388    6.65446239614832    2.22415068139275
H        12.96833702589635    5.08522297105590    1.63113283604460
H         9.79977710528314    6.42743520604667   -0.45014529064021
H         9.21244302888901    7.72356550304259    0.59397007297684
H         8.04514115581964    5.00214262427976    0.01649191411986
H         7.19291821354209    6.55050255802669    0.13655167887584
H        11.56106457034665    3.68733788720916    5.86349237841808
H        13.20966448964293    4.19764413430313    6.28032585564607
H        12.89730564318469    2.53645969477282    5.79034823953506
H        12.51577649539979    1.90093625891416    3.48405089225137
H        12.27949942353629    3.10274296763872    2.21396290837422
H        11.06546604804216    2.91697424789894    3.49022489554760
H        14.55290046542373    4.15273152937113    2.79753180038547
H        14.75616892918739    2.95267318860135    4.06744463595498
H        14.88419760985162    4.66439568389955    4.45213518947923
H        10.86279523122970    8.00310650521257    3.81230610894786
H        12.51721870542066    8.49333353084438    3.37182713122621
H        11.81552932847654    9.03339694844307    4.89439786853929
H        14.47576739461239    7.10601829183564    4.30163868813266
H        14.23115580748187    6.29043573667226    5.85318718448536
H        14.04790327146890    8.03554601217523    5.73655986296201
H        11.63623786236724    7.67640113641215    6.79560826381513
H        11.94668770237313    5.94250606718059    6.79133905158112
H        10.53668991600549    6.58076616600920    5.94326914247853
H         8.52435832925501    2.87434875289415    2.67310157203850
H         8.30600667993052    3.03675550831628    0.92292638506542
H         7.38820665026874    1.82163414071593    1.81461393886553
H         5.11447684548656    4.08849049467237    3.62685961107848
H         6.69974108039101    3.62206930081613    4.27602170951708
H         5.69435972239460    2.43769702647317    3.43808611022980
H         4.84282001817145    4.51722495182744    1.15307512832988
H         5.21277151374824    2.81016727977343    0.94521145799659
H         6.10366843779735    4.01664065195717    0.02651866142824
H         8.37445556530037    7.96516751626245    2.98077838815328
H         6.94206691816290    8.96419511399286    3.28056548351334
H         7.28752374125363    8.41402804884952    1.64345290902454
H         5.19609135384937    6.96801013721725    1.25032223372322
H         4.66797813281773    7.90148556161338    2.64886226173619
H         4.49479591035297    6.15135998091262    2.65528999024568
H         7.41048692232961    6.54171334165528    4.91134928294627
H         5.78769640129305    5.86253141938257    4.76842121322542
H         5.99378989273104    7.60394718816386    4.93449535774738

