77
CSD_code = GUZJOA | q = 0 | S = 0 | Stoichiometry = C38H30Cl2O4P2Pd | MND = 4
Pd        0.00048591371266   -0.00200654323209   -0.00049735184164
Cl       -0.89260423466252    1.74694556799590    1.19075896449593
P         1.26726954730828    1.47337162589188   -1.13194745218054
C         0.29468413585369    2.49745160972480   -2.26900380448311
C         0.88500796628231    3.37513087526014   -3.17448086081552
H         1.96261792224150    3.46240344347672   -3.21720019030043
C         0.08854198386348    4.11555454470463   -4.02836860568489
H         0.54352864093851    4.80181715895867   -4.72759316550167
C        -1.29040733722260    3.97473835592877   -3.99331114544089
H        -1.90638088150545    4.55658262411134   -4.66292068655924
C        -1.87889055598022    3.08337080009681   -3.11100641211310
H        -2.95245553370223    2.96701422110921   -3.09487198103349
C        -1.08834481834812    2.34189409271661   -2.25140747709796
H        -1.53743334950249    1.63828925716643   -1.54691725771349
C         2.07773768149391    2.55097195958828    0.08429380528915
C         2.43455252346278    1.91519310091505    1.27357659237921
H         2.19823262750736    0.85285284199459    1.40093017256280
C         3.05317175933387    2.62736247570900    2.28196165581574
H         3.32566892440895    2.13760051968125    3.20523738063528
C         3.30820558579109    3.97991867147342    2.11047098406272
H         3.78264147908076    4.54200160330136    2.90117945284228
C         2.94143650463542    4.61560111649168    0.93633521426358
H         3.12835212513745    5.67242178938685    0.81399739012051
C         2.32593555984841    3.90576850639879   -0.08122791793080
H         2.02297838698889    4.40708609721766   -0.98888461999219
C         2.62831334700026    0.92109966486192   -2.20045285724038
C         2.28491443930450    0.28934518505177   -3.39525938461261
H         1.24002028661709    0.17673982525865   -3.65339033350818
C         3.26950327332636   -0.19709945974330   -4.22643359571966
H         3.02679513388923   -0.69135623544290   -5.15488116203981
C         4.61177737003509   -0.06459118915873   -3.86925200141203
C         4.95459561107880    0.55306777581130   -2.66923764525398
H         5.99430891220086    0.64544589859415   -2.39602958606649
C         3.96559139629196    1.04046268161456   -1.83683149863348
H         4.22994799990325    1.51685871761035   -0.90255278065652
C         5.64042675864911   -0.59693389190759   -4.78901319862063
O         6.89277981398790   -0.47984288562211   -4.31663292948164
H         7.51711158994536   -0.85092392624882   -4.95937780460636
O         5.41072185675854   -1.08887475778595   -5.86569258344266
Cl        0.89311964975420   -1.75137994181227   -1.19132110008600
P        -1.26657755310448   -1.47652319189399    1.13191019749211
C        -0.29493628822071   -2.49948735369799    2.27075842127562
C        -0.88599584752932   -3.37448710696372    3.17836697948155
H        -1.96371063642243   -3.46008677713882    3.22193840840416
C        -0.09010312742351   -4.11435487629285    4.03327497240060
H        -0.54566517806371   -4.79846728689851    4.73423655805528
C         1.28904062966387   -3.97570280929549    3.99705028168933
H         1.90455564277242   -4.55705021663274    4.66751662325313
C         1.87828729747372   -3.08702379923077    3.11254638019873
H         2.95201225788337   -2.97229773825188    3.09551039187204
C         1.08831464197645   -2.34609930150882    2.25194174110078
H         1.53800022498247   -1.64474230195727    1.54563252418869
C        -2.07754233474109   -2.55612340348161   -0.08221463357180
C        -2.43368202307885   -1.92286373639203   -1.27302645858833
H        -2.19616490229040   -0.86111329846771   -1.40296023871867
C        -3.05321508840699   -2.63681716339541   -2.27959527097889
H        -3.32514539768971   -2.14905416016939   -3.20409833731463
C        -3.30982976704107   -3.98864211593876   -2.10476055683056
H        -3.78488693183877   -4.55214574189617   -2.89408966736894
C        -2.94359913482363   -4.62189644412994   -0.92913699523450
H        -3.13173468557098   -5.67820289512403   -0.80419108377144
C        -2.32721746571641   -3.91025156863828    0.08661517607780
H        -2.02493694670788   -4.40964652600415    0.99556650114898
C        -2.62750803655216   -0.92108177947074    2.19892593970110
C        -2.28412015755079   -0.28983441413487    3.39401146587588
H        -1.23932803325640   -0.18059889240303    3.65398945286248
C        -3.26852178929286    0.20057893379698    4.22306514397650
H        -3.02577136654925    0.69460953084043    5.15162303595711
C        -4.61058959133082    0.07272714761367    3.86343036761995
C        -4.95336566380640   -0.54464779307246    2.66325891886191
H        -5.99290039432287   -0.63355475257449    2.38821594568146
C        -3.96454879022906   -1.03612735742563    1.83302912755662
H        -4.22888071577693   -1.51216117032648    0.89854967178326
C        -5.63898467896052    0.60987258012322    4.78067005794718
O        -6.89076610790597    0.49816017339081    4.30548315531892
H        -7.51488685095797    0.87245545432841    4.94656704457696
O        -5.40955520523662    1.10132837545265    5.85764453551072

