57
CSD_code = GUZMAR | q = 0 | S = 0 | Stoichiometry = C24H27Cl2N2PTi | MND = 5
Ti        5.01761760809592   12.34528247091772    5.12633799600218
Cl        3.11097937086219   11.41024932755314    4.50310760610761
Cl        4.41685612744721   12.34666450548108    7.29634520145768
P         7.23187899544784   13.03853840622915    6.13525814550215
N         6.09867362651797   10.86296319951570    4.73885804670793
N         5.36798629694922   13.87629022478554    4.07148392178185
C         8.06831810003331   11.67698185780961    7.06223735748947
H         9.11337596643176   11.93746300484674    7.26023449900635
H         7.54030414519427   11.59859175481894    8.01998090381259
C         7.97875285628518   10.35258866531495    6.30446394549214
H         8.63019991219446   10.38883365560224    5.42777186555962
H         8.32844533798472    9.54422073027976    6.95206975166198
C         6.53888342802665   10.04004566014290    5.85017410754626
H         6.46406739715865    8.97679206135277    5.57923703192264
H         5.86005197035028   10.21165958040904    6.70000779552008
C         6.32860261224058   10.41555108782606    3.46021073071244
C         7.24524300602660    9.40005126520846    3.13489126111678
H         7.81291947607783    8.90383543327815    3.90739532368883
C         7.44262624242367    9.00953215076564    1.82415106112154
H         8.15531922604625    8.22517227209742    1.61238468437173
C         6.74483476202069    9.60633568846377    0.78945215602997
H         6.90469002166552    9.29575757968518   -0.23132987846674
C         5.82548641317798   10.60073568280070    1.08887214224833
H         5.25543084700421   11.06357982495088    0.29615155425390
C         5.61727191257505   11.00225149105032    2.39238261695433
H         4.86007110924242   11.75506477886292    2.60715600346853
C         8.39540416124680   13.35055086003924    4.73165762304875
H         9.38337813645973   13.63279442436795    5.10942232800676
H         8.48595985710539   12.43284310841901    4.14121918327601
C         7.81419402943128   14.46944166131025    3.86978757990898
H         8.53086635427800   14.74405304875379    3.09102556772658
H         7.64285487636863   15.34580239155651    4.50198336376812
C         6.49819245161879   14.05000445941615    3.17984892882426
H         6.24763505629575   14.79368621876039    2.40918440975951
H         6.68209291457341   13.09639785496970    2.66682337161392
C         4.69566186112786   15.00104435030855    4.49628536226866
C         3.50352655145107   14.82159482058083    5.23192290437099
H         3.09747235757242   13.81784300151831    5.36036003191605
C         2.81009983402291   15.89802220657260    5.74489418359964
H         1.90466099968142   15.72443209687582    6.30819595900352
C         3.25606830717652   17.19441383559936    5.53174318213471
H         2.71326955055579   18.03439174759855    5.93668482714847
C         4.39244994000871   17.39258349550449    4.76888967859941
H         4.73858226433185   18.39646826468349    4.56806527368269
C         5.10365915050079   16.32439681060638    4.25542204653294
H         5.97795498855488   16.53312590956766    3.65856957597958
C         7.55254846631929   14.49160405296031    7.19447188070796
C         6.45815165311491   15.28694916254507    7.52225312820282
H         5.47081423812925   14.99561302745913    7.18234267985263
C         6.62982103419855   16.42911079558972    8.28423450325677
H         5.77699065749645   17.04382494479257    8.52955001011300
C         7.89368155989239   16.77969423893425    8.72897326094525
H         8.03100554772015   17.67059658367197    9.32357322626052
C         8.98565024751587   15.98630616461285    8.41329464103947
H         9.97033087173361   16.25874887052494    8.76446047363911
C         8.81994326424718   14.84781743789283    7.64634396877463
H         9.67919204979463   14.23871179395935    7.40253101498085

