65
CSD_code = GUZNIA | q = 0 | S = 0 | Stoichiometry = C24H35Cl2HfN2P | MND = 5
Hf        3.53689095542296   18.97216203484423   -0.34039633239091
Cl        4.46191228622793   20.26817745076147   -2.01872973042756
Cl        3.89232874956445   16.80682039512767   -1.20919007577860
P         2.38214783831454   18.04039571630596    1.89588955332306
N         4.46392600313889   19.59640930520729    1.31642637281367
N         1.70253558985236   19.72122254408749   -0.19779934423429
C         2.43297250353108   20.87907931242519    1.85200387679237
H         2.16356573790780   21.78676627155369    2.41005208851563
C         1.93111876013493   19.67624256590149    2.65046139318939
H         0.84004921345958   19.72437170693892    2.70181074132637
H         2.34061028103601   19.73652945445717    3.66053576639868
C         3.96306501482489   20.88417289433082    1.72801121240052
H         4.24146506406192   21.69139853197906    1.02096875272682
H         4.37959335166311   21.15643093922047    2.71147295574660
C         1.73039084094676   20.98757511540544    0.48909089039454
H         0.70309960680554   21.34144650402324    0.67155490562276
H         2.24711959388703   21.77467133259109   -0.09838192849467
C         0.81871057363032   17.10290612643789    2.17067909902115
C         0.03349745468962   17.21677862348999    3.31226150023591
H         0.32328946105441   17.89205518873611    4.10478896630517
C        -1.11504573445819   16.45746315620414    3.44291345203010
H        -1.72313310077165   16.55120440137896    4.33128724453800
C        -1.48583551667245   15.57385556686724    2.44186961742238
H        -2.38546474203259   14.98575825777169    2.54782551394807
C        -0.69768444836167   15.43998495023638    1.31112398612357
H        -0.97880816184294   14.74450879588844    0.53395506030854
C         0.45080372301910   16.19992872961470    1.17969548374278
H         1.08292118727147   16.09735303050348    0.30633890389539
C         3.34348141350792   17.15284001628022    3.18738074671098
C         3.45212955955693   17.46957133009836    4.53464054251664
H         2.94626122014401   18.32984264726482    4.94799806504729
C         4.21947005871907   16.68074072084213    5.37553442975552
H         4.30206618570623   16.93895497993492    6.42161098182445
C         4.87787556342806   15.56609599332625    4.88568184437542
H         5.47684356755364   14.95786694255426    5.54702936049829
C         4.76345565574468   15.23314136035814    3.54521433576171
H         5.27115581328204   14.36237591264765    3.15739979720794
C         4.00259733846231   16.02263698271578    2.70470004198394
H         3.90709162967819   15.77240523485171    1.65422184940097
C         5.91432220729534   19.43591694298139    1.38239977478205
C         6.26061039217554   18.19068796581696    0.55052172563260
H         5.67762294213854   17.33509815431051    0.89906536283337
H         7.31736082092604   17.94913456978439    0.65547716765181
H         6.05839895968070   18.37460595921294   -0.51249875246986
C         6.68296234510230   20.63623614004069    0.79527373195457
H         6.29532512053364   20.89019735893682   -0.19111639740738
H         7.73596485180337   20.38340607977879    0.69648062206383
H         6.60447764521870   21.50883344532602    1.43961844686440
C         6.37057689354072   19.19994161441017    2.83522695310166
H         6.13142749443898   20.05761949860843    3.45899093658646
H         7.44530850747504   19.04269981633740    2.87055761385955
H         5.87016576600129   18.32577384529649    3.24319095532860
C         0.79743369330753   19.63749486692249   -1.33877850693316
C        -0.64662858234648   19.41644140249060   -0.84710920458270
H        -0.68067327786421   18.54384007006657   -0.19802140683736
H        -1.31599662270918   19.26251833860048   -1.68917482829943
H        -0.99812207821994   20.27797407996019   -0.28472434803404
C         1.22847393924183   18.41488804978621   -2.16442583286310
H         2.22092813625006   18.58042444777577   -2.60128635565970
H         0.52592275987076   18.24297886875457   -2.97851692771255
H         1.24641573594859   17.52439933016740   -1.53274117148809
C         0.85452216302427   20.87683748405583   -2.25237417780950
H         0.42593266797051   21.74897851776400   -1.76443383883102
H         0.29148369160409   20.68773484920087   -3.16317974812492
H         1.88681373549926   21.09679728045608   -2.52315371417763

