94
CSD_code = GUZPUO | q = 0 | S = 0 | Stoichiometry = C42H39CoN6O3S3 | MND = 6
Co        5.28556162992734   18.44309002532879    5.51599406477392
S         2.99555274868072   15.09821830156049    3.99942029329721
S         3.51877477321079   21.71664134354334    9.53195590495710
S         6.42489222016161   22.50459712530323    3.81810121285790
O         4.15000223677655   19.90061770930186    5.20163118763812
O         6.60630982260974   17.08605726787825    5.56837148169786
O         4.88404496791022   17.84958812646111    3.79250215397340
N         5.47647952732759   18.83743639066400    7.41825354271613
N         6.74617721503258   19.57824988222850    4.91527068366489
N         3.84852316097595   17.26841705016858    6.05256812662903
N         8.86865212496939   23.07691816708432    4.67059967625957
C         6.38386731359326   18.29840452544313    8.16940021701504
H         6.32324193430974   18.46912386317981    9.24791733107305
N         3.78210463620484   22.91603407141321    7.18089548849909
C         7.52243680366013   16.92260520056763    6.44651062609556
C         5.63756982582101   17.87721968877241    2.76054279040860
C         7.47112872377571   17.48633118400851    7.75898935013109
N         2.13467788751279   13.58760635014993    6.00472413676126
C         2.87377050358853   19.89137148597382    5.07997836800617
C         5.25703160356603   17.12194094465791    1.61877268857782
H         4.34289364060508   16.55140906912755    1.68860031245750
C         6.84024349132455   18.63668767903183    2.67139665295653
C         8.05165879212044   23.14238197861368    3.63076966849970
C         7.26388361188787   19.46773397208625    3.73668262184824
H         8.13609188019311   20.08757142776235    3.50700588857162
C         4.43708386461171   19.56171006730518    8.13603746760586
H         4.01873721420910   18.92219032112044    8.92514667058045
H         3.63635913147530   19.81013580185289    7.44222837073934
C         0.64826499891714   18.91753060072858    5.37641504978425
H         0.03873051380713   18.07472823391571    5.67393729093633
C         2.60079583614275   17.56869614726230    5.91703908327088
H         1.86145471677475   16.80836495042679    6.18597040717758
C         6.45641794961788   21.92702766534411    5.53835420636568
H         6.86342597218802   22.73485443259048    6.14425567218079
H         5.41188981272829   21.73632347293865    5.77735996350342
C         7.28030218771228   20.65226008680141    5.72196800349716
H         8.32173974616161   20.86341614236592    5.44595490739907
H         7.25161418522332   20.37672702783251    6.77723226626626
C         2.04699611529330   18.79467760068513    5.46534469067565
C         9.60578939608753   15.82837686723342    7.06454994095611
H        10.43830323190904   15.19227130342457    6.79986689222782
C         1.81543410992671   14.08709030452526    4.82006108643892
C         0.05704008577010   20.06637372730563    4.92271394262217
H        -1.01758558763349   20.14677849050819    4.86485824480050
C         0.86262618702790   21.13565585928367    4.51551960846945
H         0.40053869381816   22.03640544379969    4.13674374918689
C         4.93202741667973   20.86164470846692    8.76932297076296
H         5.33941287626718   21.54301203355003    8.02561450077436
H         5.65455218844850   20.68584252475493    9.56552882962714
C         8.48553335969788   17.17965924434852    8.68641769130457
H         8.42213825786388   17.60889548472424    9.67744242785243
C         4.38092097334919   15.04604018177802    5.16581158729386
H         4.53418697503265   14.00609979296937    5.44891343643489
H         5.23350922628041   15.43488261562736    4.61309552895217
C         8.62831647011685   16.08413394991378    6.14376966709351
H         8.66619466777508   15.65989422795982    5.15172251693845
C         2.22576067040640   21.05184886624275    4.58345076711549
H         2.85418988026768   21.86572274626954    4.25590607736696
C         7.59571951836009   18.60568668049238    1.48414954311749
H         8.50399927746468   19.19192902282865    1.43710222970589
C         7.20447856035279   17.85650111352747    0.40764232927303
H         7.79570615252827   17.83829947788484   -0.49519887776499
C         4.13118922815389   15.89828259672673    6.41097539623774
H         3.29150995695758   15.46307095112976    6.96823575685814
H         5.02887065045481   15.85740534134301    7.03217432399003
C         9.54159925928638   16.37634741199420    8.35210340811337
H        10.31808938803722   16.16119286003920    9.06970307119398
C         2.94995735736874   22.70280544289757    8.18321616202054
C         6.02046912372919   17.11228337254380    0.48482576787131
H         5.70897765203408   16.52095130331287   -0.36468579091575
C         0.58474030560945   13.84819874201283    4.20135693294180
H         0.37921171129774   14.28647453633810    3.23821219529462
C         3.37847673180643   23.68938128019382    6.18610070038200
H         4.10285833285617   23.84233036353796    5.39673330803426
C         1.66891099112844   23.24693880954515    8.24778070720368
H         1.03648198355305   23.03781620861279    9.09549219325860
C         1.25587462704614   24.04557021382929    7.20026919989776
H         0.26814332684946   24.48259551689104    7.20575982183774
C         8.42462138273217   23.69170845361101    2.40135522977897
H         7.71663985956958   23.71215477321660    1.58862128703912
C        -0.32734415552158   13.04851367916216    4.85579781117158
H        -1.28864927018363   12.83751688767814    4.41021705941501
C        10.09275905555667   23.56225486265726    4.53679616425317
H        10.71526140086254   23.48157200376264    5.41878245330689
C         2.12752240948635   24.27861327980178    6.14361668033188
H         1.84159228143312   24.89950800538137    5.30998702287450
C         0.00728184856044   12.51553780022672    6.09758875715847
H        -0.67972286899185   11.88460695257530    6.63848036921521
C        10.56387594585441   24.13168347504789    3.36846503274290
H        11.57016191896455   24.51411271764035    3.30813978563696
C         1.24968632820871   12.82013852841177    6.62127478790477
H         1.56702255960255   12.43925303357411    7.58383671700829
C         9.70270572877640   24.19331898002549    2.27674825085613
H        10.03064904051286   24.62802156737388    1.34373622716761

