115
CSD_code = GUZQEX | q = 0 | S = 0 | Stoichiometry = C40H71NP2Ru | MND = 8
Ru        6.96851636542102    3.84675579565859    3.49528022453299
P         8.20850349464562    2.97508755103894    1.71868284559972
P         8.41359479512899    5.17649276224493    4.77212545061965
C         5.71553859061255    3.40906005106271    5.25577420099662
H         5.81213348535790    3.72172822118264    6.28849939912018
C         4.83436313486981    3.94876224030896    4.29347217042561
H         4.15124352116924    4.77703894631419    4.42035472300839
C         4.86070064304994    3.03713802771546    3.20941170112544
H         4.20168595873063    3.03012520952820    2.35260649705368
C         5.74683997880456    2.01167843926570    3.61429436126775
H         5.87395252041709    1.04773194118635    3.13851577312380
N         6.23600828997315    2.21308553954234    4.86213321361508
C         9.46143698171498    4.05968175084654    0.82344504909403
H        10.25483983619269    4.14249511144223    1.57730227712901
C         8.94892253198667    5.47915002179526    0.57376973132267
H         8.21371279664830    5.47955685711708   -0.22904476194743
H         8.45280705207534    5.84595328751066    1.47499591025353
C        10.10048990586501    6.39703639865458    0.17000663847213
H         9.72153680729547    7.40541917989841   -0.00984840371098
H        10.83102389479827    6.45667442022039    0.97971691605641
C        10.78743991454702    5.86853782695319   -1.08569564685133
H        10.08316566775002    5.89448383027622   -1.92049051022108
H        11.63606537717355    6.50502035141709   -1.34641672018894
C        11.25953200592182    4.43413998255398   -0.87030130225707
H        12.02120014857450    4.41392322021434   -0.08681000456591
H        11.71659587815854    4.05298469336772   -1.78665896324772
C        10.09054831097441    3.53449076067969   -0.46718185193040
H        10.45297972677539    2.51319311169860   -0.35003381389928
H         9.35287346725366    3.54968879302154   -1.26980936703038
C         6.96111206170279    2.40243433485420    0.41125526502576
H         6.22145647546034    1.86993117242854    1.02457524155611
C         6.23438438749702    3.59751161795578   -0.20619357421678
H         5.98800680388493    4.31731907000293    0.57904059874593
H         6.88524426295482    4.08785911183840   -0.93089757950926
C         4.97404567469610    3.13641786188864   -0.93226151037893
H         4.29418378686093    2.65404342271823   -0.22580004696241
H         4.45492285623615    3.99743208626653   -1.35905584571563
C         5.34160373745510    2.14835276169546   -2.03474513489472
H         5.95746086492425    2.65425092782330   -2.78232719778818
H         4.43996171858093    1.78748517511804   -2.53466715986533
C         6.11829287623627    0.97194455457652   -1.45262939246673
H         6.40677394356529    0.28546154055427   -2.25245106020904
H         5.47430954071228    0.42236683869288   -0.76085509169153
C         7.37129317193855    1.44420575367125   -0.71054618427205
H         8.03315829774394    1.94077901478180   -1.41896872719361
H         7.88683059764966    0.56590868154350   -0.32315113509902
C         9.21913391819673    1.38137846133268    1.86387660582123
H         9.50155942731218    1.10138916880123    0.84359739086104
C         8.38728038121228    0.25283966269041    2.47037940885209
H         7.46827949384834    0.10655657629574    1.89952533450325
H         8.12126841696105    0.52107976132694    3.49587499278529
C         9.16754498421080   -1.05985267883258    2.48305078984322
H         8.54981112047289   -1.84908430264797    2.91763820704318
H         9.40676016185731   -1.35159250294517    1.45640648757615
C        10.45739434954199   -0.90778937973414    3.27929878275359
H        10.21522854589168   -0.67962722566693    4.31961843313199
H        11.02348301386379   -1.84169855549009    3.26197558231179
C        11.29192479804007    0.22482634279466    2.69451370894064
H        11.58659126585859   -0.03054523986271    1.67313655424981
H        12.20424634589936    0.35920248902745    3.28007147988034
C        10.49701590078429    1.52981849284699    2.68330651409546
H        10.22836597943707    1.78982674508802    3.70913401243185
H        11.12888835816497    2.31669159945372    2.26952115581777
C        10.08322669159175    5.83382412881069    4.16376674311140
H         9.87146357999606    6.03778347976482    3.10701877830794
C        10.68989427634002    7.10210595588059    4.77023155466011
H        10.00049988233572    7.94280709440289    4.71634614061830
H        10.95225824568421    6.94011325651225    5.81541277177547
C        11.95437781861530    7.48527625856248    3.99654233036904
H        11.68711391428101    7.71140234652986    2.96144643884247
H        12.38385700879415    8.39016982336788    4.43283643652523
C        12.98599882183822    6.36282783325846    4.01811585710963
H        13.86785263442766    6.65582174657461    3.44408321737276
H        13.30396255064211    6.18185571801455    5.04775853468836
C        12.38215405944547    5.08653798382581    3.44293485822942
H        13.10579799409360    4.26947477756856    3.49958144805967
H        12.14073643552339    5.24539594285370    2.38973743207427
C        11.12145723537986    4.71689151680930    4.21832048824726
H        11.40878925805353    4.52895120741295    5.25294669307979
H        10.66740684562226    3.81291056727231    3.81608187747075
C         7.64953937249178    6.81982955159493    5.28239345336068
H         8.39126888674224    7.33797665133022    5.90010424668560
C         7.35631942210524    7.65258904453808    4.03377166792814
H         8.24824494989821    7.74330449771766    3.41210736347506
H         6.60221492789319    7.12844521351903    3.44253507163125
C         6.84209175093050    9.03950979476673    4.40798857984990
H         7.60627143389942    9.57392160069336    4.97941028792078
H         6.64065618458882    9.61425464328374    3.50164439985365
C         5.57365013492601    8.92358669242141    5.24502302032797
H         5.21941314630428    9.91525643352742    5.53541539589705
H         4.79217678502328    8.44868023449556    4.64807127410964
C         5.84403677496409    8.08098548358927    6.48607856351127
H         4.92829120526012    7.97568237723350    7.07294979198268
H         6.58399690810311    8.58628523600685    7.11276980332229
C         6.36687371787368    6.69788896069385    6.10064914660565
H         5.61367778994590    6.18253069332558    5.50386346031133
H         6.53941098275154    6.12524251254504    7.01432734018988
C         8.73377384999982    4.42585820053013    6.46828921901145
H         7.72663524393942    4.41809309169168    6.90459903603764
C         9.63028263738441    5.17362013176800    7.45321223657020
H         9.33321801179094    6.22077597492744    7.53108105180263
H        10.67089376410709    5.13371667754320    7.13061708845848
C         9.52431285049212    4.51701519447905    8.83053266365294
H        10.16669022994529    5.04492709163213    9.53981965833910
H         8.49600846829892    4.59493980941031    9.19298361419961
C         9.92555221277449    3.04638306637495    8.76105487080242
H        10.97496998224483    2.97273777328228    8.46431206293815
H         9.82566110934025    2.58767454957443    9.74733372462503
C         9.06155324436715    2.30149957599013    7.74706482217057
H         8.02051412850273    2.30870081075117    8.07849725367474
H         9.38055813900284    1.25883653639060    7.68204330381462
C         9.16342636840082    2.96147689324504    6.37466431513861
H         8.51505234791861    2.44090383334313    5.66402904535671
H        10.19211196751288    2.88389423810137    6.02183642838583
H         6.78743521607437    5.07558962864542    2.62152249456706

