63
CSD_code = GUZQAV | q = 0 | S = 0 | Stoichiometry = C28H26N4NiO2S2 | MND = 4
Ni        1.48797401049457    4.95999917001606   12.00729808836132
S         1.95091298350459    3.16751924055680    7.72682632206683
O         2.04584273372920    6.67500873178399   11.70589631703724
N         2.75799872338048    4.27502644553318   10.65491966169239
N        -0.23588316381966    1.70343728980764    7.55081156904545
C         2.91948977764204    7.18654719591461   10.91623703131391
C         3.54608760539582    5.01230166208087    9.94229216039225
H         4.18136458805972    4.51550578453327    9.20444081271588
C         2.78198669331460    2.85441678813141   10.34179045160144
H         2.65239034278973    2.28517623881466   11.26475928956560
H         3.73989233899798    2.58372652375299    9.87930456641261
C         3.69895204507595    6.42035351733402   10.00353184417738
C         4.62484454035960    7.06332625199084    9.16261110120375
H         5.19928594142042    6.46106060047374    8.47274931102831
C         0.58584999782473    2.48182786126949    6.86708141401874
C         4.04687403772334    9.18041340788434   10.11091853819454
H         4.18948553120673   10.25097071203566   10.15100437168102
C         1.64103736896548    2.49329659087807    9.39849963245199
H         0.70066811759316    2.91337809410594    9.75674947875840
H         1.54263775998597    1.41486780416712    9.28950847517477
C         3.13394484573266    8.58836555291561   10.94032048205201
H         2.55241860539691    9.17259066100315   11.63787276416750
C         0.42019361171038    2.77134554897279    5.51111146426482
H         1.12471926197852    3.41409094595847    5.00808260301968
C        -0.65965797409833    2.21215080819659    4.86099732708264
H        -0.82648533567367    2.40879754043799    3.81180960725572
C         4.80022430018825    8.42023035074475    9.20879866785605
H         5.51267868735859    8.90534152364687    8.55958145774684
C        -1.26820045372099    1.17518491190934    6.91415652488055
H        -1.90744006533287    0.54833808111572    7.52219351574904
C        -1.52965967303347    1.39296475403057    5.57376495276047
H        -2.38425213390634    0.93928521058134    5.09793049209005
S         1.02515569668549    6.75244280962441   16.28785162246491
O         0.93014903336696    3.24498345429573   12.30873116450332
N         0.21803016164216    5.64496344810551   13.35975854132179
N         3.21193550935296    8.21655371167755   16.46387658589623
C         0.05650880578036    2.73344422684726   13.09840113266461
C        -0.57005755492184    4.90768513407468   14.07238407403077
H        -1.20533500463841    5.40447834306549   14.81023400089240
C         0.19406260095731    7.06556932923028   13.67290357672386
H         0.32364796825099    7.63481811717455   12.74993842834017
H        -0.76383062471095    7.33626565199164   14.13541071830211
C        -0.72294309705093    3.49963659295330   14.01111749566818
C        -1.64884419241308    2.85666591271676   14.85202902314212
H        -2.22327103084925    3.45892995182420   15.54190529514183
C         2.39019246521294    7.43817207355745   17.14760877457989
C        -1.07091154896917    0.73958474537397   13.90368564488890
H        -1.21353673014784   -0.33097019930974   13.86358869771048
C         1.33503582329454    7.42665925104073   14.61617613934161
H         2.27538909693587    7.00655223934828   14.25791170079271
H         1.43346503523865    8.50508536052955   14.72516756424776
C        -0.15797580233334    1.33163016634903   13.07428972851081
H         0.42353288663598    0.74740677533846   12.37672013764858
C         2.55582420872895    7.14868347339925   18.50358831876594
H         1.85129471140997    6.50594087468583   19.00661630600114
C         3.63565571027119    7.70790506859636   19.15371305867084
H         3.80246356931346    7.51128152813975   20.20290852704492
C        -1.82424454078494    1.49976540175409   14.80582223873859
H        -2.53669955093121    1.01465503228536   15.45504040105809
C         4.24423348796101    8.74483230813962   17.10054155752633
H         4.88348251857532    9.37167055571875   16.49250226883071
C         4.50566910235171    8.52708104163585   18.44094215185860
H         5.36024563554235    8.98078181925680   18.91678482887863

