49
CSD_code = GUZRID | q = 0 | S = 0 | Stoichiometry = C17H28ClN2Rh | MND = 6
Rh        0.58598232469155    9.67490945773077   10.07453634085512
Cl       -1.13264316450435   10.40174567463454    8.76093472260585
N         0.55234443609598    7.46650518169114    8.04270984240745
C         0.40556323920198   11.40178968178575   11.34304308014903
H        -0.59011603303476   11.81351838225294   11.17480351107405
N        -0.79949428785949    7.04965925246713    9.66431235514642
C        -0.97497107999458    6.06002498983006    8.73314120552194
H        -1.67492908003358    5.26019691027121    8.85748506461918
C         1.46531960509303    8.19078658279813    7.18088530247787
H         1.81517001908642    9.04836380803538    7.78013151651233
C        -3.02540658482356    7.61872733637570   10.45931120080941
H        -3.00179400268872    8.50172055704392    9.82397889251551
H        -3.61416559428925    7.84045358249306   11.34497860948694
H        -3.50190840249936    6.80533507100711    9.91630270619543
C        -0.12502019688215    6.32165121477488    7.71454550952786
H         0.04096077608547    5.78774316899983    6.80204697942303
C         0.14132105101350    7.91568945998718    9.24327095798361
C        -1.59879453169577    7.24829341247479   10.85699439167947
H        -1.14530806220565    8.11224135535613   11.37288378345616
C         0.70819444425934    8.72794217042935    5.96915057029775
H         0.31660796075791    7.91520328369752    5.36131422555079
H         1.36851633749342    9.33562803032535    5.35692159219664
H        -0.11957762712754    9.34601821891580    6.31030246179685
C         2.65031960372121    7.31485946816587    6.78583965022629
H         3.14277505334717    6.91689533207413    7.67067166804925
H         3.37084112474954    7.90222280102206    6.22357552065524
H         2.32788949483342    6.48290500481191    6.16368716534956
C         2.54508110267153    9.12057040327352   10.61258189887006
H         2.87109652139989    8.21997215957844   10.09007825893209
C        -1.54567531842447    6.01927686474138   11.75911886547112
H        -2.03131725640638    5.16849259312424   11.28641410420867
H        -2.05730290562566    6.22738769969896   12.69465920572501
H        -0.51421510147247    5.75266899099920   11.97982311916541
C         1.38169140243646   11.66445415438171   10.40511372791391
H         1.09850347968793   12.24424525736778    9.52614886175120
C         1.70793312504536    8.94199185436001   11.71900004943235
H         1.42144945238556    7.91669580330366   11.95272581859995
C         1.70610239026318    9.87221555763695   12.91509717050144
H         2.70766653141157   10.28518396002566   13.04554572180208
H         1.47770601787324    9.29637928077651   13.81483450608006
C         3.50415648740464   10.27731108962467   10.44052154326599
H         3.87362719600539   10.25838296597316    9.41137626046934
H         4.37127966817535   10.13058061649636   11.09522597572194
C         0.67086870421858   11.00571209401759   12.77767472784159
H        -0.27451011284712   10.67825356386595   13.21849217782456
H         1.00121021512383   11.88614006828895   13.34030300262466
C         2.86204911944570   11.65053565489153   10.71588335629589
H         3.00905440061067   11.93689007655592   11.75834630926952
H         3.36236805781797   12.40232990156800   10.10177651166279

