59
CSD_code = GUZVAY | q = 1 | S = 0 | Stoichiometry = C24H30IrO2S2(1+) | MND = 6
Ir        5.10793980708752    8.28437014093816    8.27794522846184
S         3.53241180742181    8.84866723426720    6.70116991690967
S         5.66172971468378    6.68667363191866    6.71912623895555
O         3.89761307055082   10.04016409030979    5.95223843096199
O         5.23760737683568    5.34738167180173    7.09321545065799
C         3.40375161248427    7.47413734658624    5.46906126693926
H         2.86455238551536    6.65237466997660    5.93943329681270
H         2.84449930652941    7.86071449991007    4.61888998061624
C         4.81594169566462    7.08242300443826    5.12116345089166
H         5.35368531933840    7.90715527309076    4.65425300483902
H         4.87418007336610    6.18888814756847    4.50226958684091
C         1.80411313547024    8.95788224206115    7.16045012971330
C         0.98905010690469    9.92891217430855    6.61093211359096
H         1.40873929616028   10.63423928989939    5.91028889538199
C        -0.34337837918947    9.97492466539124    6.97995435486359
H        -0.98713209748384   10.72826199066805    6.55247460572624
C        -0.86177542099834    9.06415623440007    7.89565897484709
C        -0.01472803784048    8.10063956762580    8.44338785312710
H        -0.40695002529513    7.39327948757878    9.15811007089142
C         1.31712821130545    8.04552906122389    8.08337136953084
H         1.97838455995812    7.30485485708848    8.51166232539897
C        -2.30295828889193    9.10178499663555    8.28410486023790
H        -2.76217889508622   10.04421522820686    7.99983448196528
H        -2.41760363562746    8.95888681422688    9.35625783247029
H        -2.84104630091193    8.29599218582960    7.78475150624473
C         7.34820505928290    6.61531846075721    6.11973183708236
C         7.94876031696138    5.40119379490782    5.84239779211726
H         7.39289697553934    4.49012352808628    6.00185463184628
C         9.24978432076550    5.38821713141793    5.37606133695151
H         9.72698052565255    4.44606084894644    5.15372834157735
C         9.95491379077008    6.57561920393118    5.19185284069439
C         9.32909907287497    7.78495662647377    5.48757699599414
H         9.86694338193999    8.71090714981099    5.35264344521080
C         8.02892911755048    7.81041784896155    5.95512370015983
H         7.54264481627920    8.74648038216009    6.19335168981700
C        11.35456950506710    6.54702192709210    4.67280197424842
H        11.34309351234740    6.42003425351907    3.59016318488783
H        11.90718573509186    5.71198030913883    5.09650790743890
H        11.87711132896144    7.47226960170302    4.89905867029973
C         4.24752768583169    9.47512019504146    9.87397291223756
H         3.19773605486643    9.66335996301613    9.65361962042769
C         5.19065364779656   10.24055120017215    9.17623821612956
H         4.81863343912863   10.96488803839487    8.45378548552688
C         6.58904594665487   10.53641625649713    9.66319453637263
H         6.53720430122681   11.29687160985095   10.44630806687955
H         7.14691531776430   10.96903706470317    8.83348872324797
C         7.33719373720337    9.29203711173319   10.18107356653241
H         8.40409726051971    9.43592611078469   10.01672596807357
H         7.18728329520670    9.17039330229719   11.25225541542811
C         6.89770567391551    8.02273975874749    9.47501618461018
H         7.66962743590867    7.55821392257368    8.86332631242745
C         5.88404883255834    7.18817839968616    9.96250705119793
H         5.92492209905428    6.13404594867116    9.69398399079440
C         5.06223381207948    7.46661749831524   11.19844401670568
H         5.67342259961362    7.26523731269780   12.08168026469052
H         4.23327901964763    6.76006397180656   11.21493991834996
C         4.50425391510208    8.90254481465216   11.25596010732835
H         3.56773425978476    8.88839502057354   11.81158102628824
H         5.18788780911326    9.56055292693103   11.78923904157116

