76
CSD_code = GUZXEF | q = 1 | S = 0 | Stoichiometry = C37H35N3Rh(1+) | MND = 6
Rh       -0.38858322157221    7.41827250413366   12.41124776687354
N        -1.97760212739851    5.98321672578854   12.52565126049303
H        -1.72074374824775    5.37100686596539   11.73969630096942
C        -1.81595262188247    9.05061960741338   12.31027520142871
H        -1.32213016619387    9.99093959079116   12.54790456881221
C         4.06077535845244    9.10393363780528    9.87838450213646
H         4.77960495886298    9.91061780451104    9.97932802232371
H         3.61095708438892    9.16451086935423    8.88782095349616
H         4.59344834012847    8.15615430632329    9.94964394560685
C         1.18532265069761    8.60410811199315   12.07351740936981
C         0.82025571145266    6.08942818020623   13.61604436102337
H         1.87967155726234    6.27826170499383   13.43234045227020
C         3.02387360732345    9.20484425275072   10.93390549540493
C        -3.74231759301815    7.62249129108613   13.09757787795801
C        -2.97432296149184    8.79338181596218   13.15597461943474
C         1.79252291214411    7.17264502253023   10.16248397180454
H         2.64883593938571    6.49743935376215   10.20157598216329
H         1.65408639366511    7.50548699452886    9.13252954012127
H         0.89156598146823    6.63097278114003   10.48984568721841
N         1.99198134533467    8.29746003013293   11.03740144666519
C        -4.87967121445440    7.50618362650182   13.88297568093945
H        -5.48079777554281    6.61086937516417   13.81654769966966
C        -0.80982617111477    4.16742094335162   13.67506438311971
C        -2.00028008855295    5.89140465867889   15.00369118606475
C         0.19049637460509    7.02234989339824   14.46238390961284
H         0.83194291411278    7.82105281684858   14.82996343471949
C        -3.34019642981901    6.47510053271681   12.20980829362694
H        -4.05507761998553    5.65412410191875   12.37568075984106
C        -2.52127541563054    7.78489601434254   10.21139610410001
N         1.71041362399943    9.71158350467612   12.62755828878221
C        -1.98881825588817    5.10418770150344   13.72013610430732
H        -2.90259837108301    4.49057763631668   13.69401522705235
C        -3.42378330454739    6.86347167827580   10.75656693513288
C         0.49014165537172    4.66797188760770   13.53378612719703
C         2.84582023625554   10.10249226482676   11.94246515442699
C        -4.36897891963350    6.25741324388691    9.94013366378923
H        -5.07021719925980    5.55663464434384   10.36989184511018
C        -3.04268243399938    5.70927819654143   15.90048296178814
H        -3.81176362952941    4.98342849280270   15.67955711289788
C        -1.09581835591252    7.56959710321690   16.46938551706753
H        -0.32504232924845    8.29032689760845   16.70174645680080
C        -5.24806376480021    8.50834035887942   14.76013537712204
H        -6.12997115715509    8.39442849407310   15.37046993885800
C        -3.12377114368658    6.45130139631871   17.06343795706637
H        -3.94888425595053    6.30294715809223   17.74194591589257
C        -2.56682453840582    8.02439367150934    8.83363096063775
H        -1.86733084624979    8.72466923198729    8.39995592359472
C        -3.50465464898463    7.41065277761708    8.03052742870462
H        -3.52773547178717    7.62005058220919    6.97239827547325
C         1.19849076208440   10.42237030834644   13.76860896329276
H         0.30450604105877    9.91889480120724   14.13288199410299
H         0.94967591320066   11.44902850565336   13.49384656417762
H         1.94707405762402   10.45160062950427   14.56238695667400
C        -0.98463558445122    6.81175102183764   15.29780746523385
C         1.53922997177582    3.75666939294188   13.37224597245342
H         2.54528777193823    4.13140733916452   13.24933549650081
C        -1.57602159738262    8.55963660426355   11.01244059945688
H        -0.92968223949350    9.18713708757712   10.39589757660276
C        -2.14936797833349    7.39623087380820   17.34116032445656
H        -2.21043228298329    7.99106153412620   18.23912600524180
C        -3.34907684091941    9.78639187866360   14.06852064335092
H        -2.75752358577068   10.68824508516284   14.13335914652075
C        -4.46756132746804    9.64858896530130   14.86223567779292
H        -4.73672988246392   10.42989724965715   15.55576919609492
C        -4.42147273707323    6.53199669170076    8.58658253062193
H        -5.16248962652975    6.05278744676900    7.96667116748806
C        -1.02199427225294    2.79611225412063   13.71081488355273
H        -2.02652178474905    2.41746340861902   13.83335151025925
C         3.63302583821773   11.29696801331993   12.33359843312144
H         4.47851049101573   11.42168167511628   11.66463843481291
H         4.01051297740666   11.19749890173850   13.35076984057942
H         3.02127660596578   12.19731203685317   12.28690964837912
C         1.31623117882840    2.39613075383356   13.40003586562490
H         2.14282415527379    1.71242259071567   13.28465150681181
C         0.03130179569725    1.90998793728380   13.58520595294913
H        -0.15033868410183    0.84738667633256   13.61595965486899

