74
CSD_code = HABFAU | q = 0 | S = 0 | Stoichiometry = C37H30Cl2O2P2Pd | MND = 4
C         4.43914933747797    8.34702100505835   10.56450402563800
C         5.14046840747650    8.79333689517196   11.67607439009071
H         5.31360280379432    8.12731948604023   12.50983977584856
C         5.61766749623789   10.09223086107732   11.70788808729238
H         6.16563990392551   10.44153225421205   12.57088563309488
C         5.40306002281683   10.93777713153296   10.63302260295380
H         5.78440459106091   11.94791944278386   10.65815235608070
C         4.70918520707968   10.48841264932362    9.51941133957672
H         4.55348681209577   11.14658976830783    8.67775604632732
C         4.22879602522324    9.19457442119012    9.48179793238437
H         3.70777385162800    8.82269167917296    8.60936239540397
C         2.03559990238092    6.90834959410128   10.26393823665339
C         1.18854130290386    7.18442152784830   11.32729799359296
H         1.59176601100884    7.24184210074452   12.32809028017934
C        -0.16244092063426    7.37479245124525   11.09334058662127
H        -0.82867635685777    7.57739612154234   11.91929856885114
C        -0.66071029412867    7.31269384454366    9.80177467620455
H        -1.71458140975398    7.46823733823000    9.62431417227458
C         0.18606907196429    7.04806284080422    8.73612525297505
H        -0.20631514813570    6.99589014152375    7.73142828150295
C         1.53278138900651    6.83579321393026    8.96677831761581
H         2.21037927548755    6.60492989715541    8.13372089138330
C         1.35109421634954    3.45811534165727    8.37443685532297
C         0.15929243513707    3.87003260197539    8.96530308700912
H         0.15591159991096    4.20919574221094    9.99226071778257
C        -1.01814192495490    3.84188368929753    8.24122088397911
H        -1.94053553868802    4.15642382390319    8.70712213541986
C        -1.01171108980351    3.41784966262599    6.92217503903385
H        -1.93207054176543    3.39937242967537    6.35714429795425
C         0.17608777281394    3.02414303897087    6.32630188031861
H         0.18315775769828    2.70207589311449    5.29564803778722
C         1.35798440429797    3.04572160395710    7.04470503532428
H         2.29261049579608    2.76182858626068    6.58350960558540
C         3.72342922892902    1.95693570357655    9.19316141238859
C         3.12464916275223    0.77921643411280    8.77027662390377
H         2.10017947283578    0.77516378576313    8.42608995734466
C         3.85952227000042   -0.39427370168638    8.75719741300230
H         3.39564257166899   -1.31040665658584    8.42215509879269
C         5.18394386096818   -0.39534997360156    9.15967238719932
H         5.75059394853707   -1.31458660328624    9.14411915233297
C         5.79085124111814    0.78611465371057    9.55702060782575
H         6.83209311450903    0.79347784370348    9.84234299317805
C         5.06379964764873    1.95986620292228    9.56656709319232
H         5.53733945318035    2.90799744004892    9.82685414298166
C         1.99788518218474    2.68933543295303   11.69685107805100
C         1.21959648076803    1.64244626009831   11.23136594251639
H         0.95152400950814    1.60878195030426   10.18792823245056
C         0.77499782684310    0.66170293010795   12.10045861208969
H         0.17212134881158   -0.14986595914647   11.72302137768468
C         1.10303184212237    0.72662941756546   13.44150119576380
H         0.76393300293786   -0.03774933329583   14.12363704683467
C         1.86467575330883    1.78375874582303   13.90843962282521
H         2.11208308137115    1.84218000163374   14.95858515251106
C         2.31963715833437    2.77780115498509   13.05537752466069
C         3.13820728240292    3.93039035178549   13.57085512156975
H         3.24352526474574    3.84313424696880   14.65421206814278
H         2.62379161459392    4.86588729029410   13.34372278161034
C         4.49984230641139    3.95342703879099   12.92803009315197
C         5.39379420692639    2.90757553426577   13.12027536847759
H         5.09862682643575    2.08125029075409   13.75020899155435
C         6.63783489040686    2.91016865346433   12.51556975195355
H         7.31883624302795    2.09010520197331   12.68427925826776
C         7.00554922260403    3.96176286162511   11.69205571796450
H         7.97186050995512    3.97142059824204   11.21166649943882
C         6.12320147649078    5.00829565994076   11.47070670815886
H         6.41094101946413    5.85647977777274   10.85288770317933
C         4.88250426469851    5.00773329386223   12.10174022229261
O         2.46723595877956    3.69036834337133   10.86803869553863
O         4.00402284794857    6.06847805060077   11.92779517920759
P         3.82590582711350    6.64571271884019   10.43070448390469
P         2.91268931195463    3.58589415891749    9.29937155983091
Cl        5.94742845969751    6.69629543994881    8.12261845032410
Cl        4.59196025526246    3.89731249431660    6.97070934703156
Pd        4.36128568389201    5.22337518536799    8.81069991280949

