55
CSD_code = HABFUO | q = 0 | S = 0 | Stoichiometry = C22H23N3O5PdS | MND = 4
Pd        2.32023853023903    5.33441733692631    7.46101664653951
S         2.24525812700709    6.21679340943958    5.01250856462951
O         1.18633207080555    5.30269183810235    4.62318563570300
O         3.55549066432941    5.60491387763386    5.12607990000711
O         4.01976258345182    6.38907800443954    7.72947252231845
O         4.91651488704813    8.28790128712062    7.01103537876771
O         1.38333404338079    7.49701456989938    8.96957969243415
H         0.56909292892305    7.19011114582954    8.54098788747295
N         0.74809184126225    4.20108763707548    7.20412096519198
N         3.02658383480618    3.68667875129783    8.28564163907407
N         1.72141643025412    6.92115128083631    6.37065879260940
C        -0.42207062360737    4.57752241993835    6.69275388503749
H        -0.57283181359118    5.64372209394925    6.57907124315648
C        -1.38344251529384    3.66991481425393    6.29833038189597
H        -2.31339768445973    4.01875209698936    5.87849750028361
C        -1.13736566393384    2.30194243045463    6.42373347492131
C        -2.13992515757180    1.29644574756561    5.96256554780137
H        -2.14082893505062    1.25728055413644    4.87361071528676
H        -3.14053886696613    1.57675400868457    6.28439521181712
H        -1.90743882792425    0.30515318962319    6.34197514813278
C         0.07641876031339    1.92002199369336    6.97495522744472
H         0.30327195397992    0.87223993523925    7.09263674529206
C         1.00668953658864    2.88354817298513    7.35730112348138
C         2.30946809007768    2.58993013615394    7.95677469995451
C         2.81153433195040    1.31146157547994    8.19164271475696
H         2.23386326641012    0.44294302876988    7.91750406276415
C         4.06540083983795    1.14938594458294    8.76277087549286
C         4.63684305986778   -0.20381966117038    9.03084155361929
H         4.01066165333961   -0.98620029585237    8.61072914886728
H         4.72282038859437   -0.36524827299503   10.10505020185083
H         5.63533340939647   -0.28242710267099    8.60487234459324
C         4.78348899374241    2.30391458838856    9.08235021743483
H         5.76667206916020    2.22877031890844    9.51926698485153
C         4.23392421199593    3.54449661817319    8.82730165045197
H         4.76418428178624    4.46499079019546    9.04352035533945
C         2.57602492192726   10.77924851121189    1.04193986884268
H         3.37609588234194   10.60692286925300    0.32389424290127
H         2.80197083036070   11.70268392595489    1.57369517825509
H         1.64257564280457   10.90956059637517    0.50070343858751
C         2.48601057319850    9.63564921717152    2.00644707536289
C         3.60429023750743    9.26140605781973    2.74700981573058
H         4.53106794748851    9.80138638947228    2.62045436913143
C         1.29730705988657    8.93645805225848    2.18133114161910
H         0.42334556226719    9.21669550080563    1.61063974562656
C         3.53939480654924    8.21022056511648    3.64352223067221
H         4.39631697120787    7.90875592929622    4.22547318399208
C         1.22399177476339    7.88618984165220    3.08082778686024
H         0.31484560535135    7.32498740594090    3.22968371111390
C         2.34645816184470    7.52805003690025    3.80033505299390
C         2.53211734027740    8.02455367937547    6.85578630635352
H         2.56297764786812    8.84329096852601    6.12236456168825
C         3.96646076996382    7.54895804890606    7.19592564083917
C         1.90169335518125    8.54413462152636    8.17256070251293
H         2.67163900015477    9.03727054938737    8.77100095991944
H         1.10616520904607    9.26514296902685    7.94286634764548

