70
CSD_code = HABGUP | q = 1 | S = 0 | Stoichiometry = C33H29IrN7(1+) | MND = 6
Ir       -0.81143049780119    5.97753363759519    6.60001040071892
N        -0.10627421473735    6.03393252633110    4.55492970461844
N        -0.03534076552993    4.91535382650904    2.65389175269052
H        -0.17242436304133    4.17715413105645    1.98386416238554
N        -1.03911754000393    3.84197535266487    4.52056302240671
N        -1.42807764255317    4.02514480997361    5.74976960659526
N        -3.90009828131718   -0.29720036056314    8.18677433483277
N         0.78479489521877    5.00679209752910    7.39388903877385
N        -2.41036552614209    7.04130825573066    5.95607736127260
C        -0.43106437678324    4.88962645082591    3.95176077579408
C         0.55155461773791    6.12656840316011    2.43567367479187
H         0.95302529602272    6.40802202895626    1.48487549447744
C         0.50012481732172    6.80345451619458    3.62477449232705
H         0.86313739206706    7.78263832602603    3.86431393495611
C        -2.01591737541895    2.94669837608705    6.33415643237322
C        -2.65783662355964    3.09041925771918    7.57814054619936
H        -2.67778622281944    4.06316734436177    8.04237886341483
C        -3.27370272350201    2.03244432436752    8.18455026011890
H        -3.77199372050572    2.20219819191642    9.12377616825258
C        -3.29171685864666    0.74820283571924    7.59055007603809
C        -2.64182329782336    0.60844149376039    6.33941372158272
H        -2.60606369964263   -0.35278605796014    5.85473424707959
C        -2.03143294072024    1.66774388097679    5.73391069171373
H        -1.53240499579244    1.54232348428418    4.78550283695352
C        -4.05579854126916   -1.55937250412563    7.50213502184329
H        -3.10296763863750   -2.09096262883212    7.42482662812437
H        -4.45807808515473   -1.40847902797817    6.49906835252012
H        -4.75309222886277   -2.18592437138677    8.05183858195933
C        -4.43357425308955   -0.18445248707295    9.52409790656881
H        -5.34739929884976    0.41678461224582    9.53916407075216
H        -3.70196970661332    0.26974906110000   10.19397267392026
H        -4.66840758611301   -1.17502404125110    9.90481686621225
C         0.71978045662968    4.73112540611157    8.71965183426464
C         1.75148305954613    4.03289415662129    9.34987902169057
H         1.68564623365618    3.81875940073827   10.40354084752745
C         2.85343531629676    3.62533339016687    8.62727418298164
H         3.65796884618107    3.08862890105703    9.10532131325030
C         2.91045544200585    3.92730523334860    7.27219582951214
H         3.75542857023617    3.63822555025300    6.66916718456292
C         1.85784742007277    4.61674540036675    6.70574474007331
H         1.88291653418966    4.87420667247406    5.65554934267144
C        -0.47508657335288    5.23054531102230    9.37920619395227
C        -1.38959368554917    5.90259139860956    8.53680646241304
C        -2.53750649499132    6.42814396680616    9.12512576738852
H        -3.26098044109122    6.96115394922160    8.52297226059151
C        -2.78512834073440    6.28261866928509   10.48005379041005
H        -3.68392999038690    6.70101598468902   10.90839526174057
C        -1.88431043278602    5.60722938360203   11.29001020596674
H        -2.08102153607096    5.49834838086234   12.34553308004085
C        -0.73116464032678    5.08447789755972   10.74340749442125
H        -0.02930570927303    4.56989641376363   11.38157258858341
C        -2.29695019773423    8.38869826986397    6.03365540608740
C        -3.31876847929500    9.21371667097585    5.56031505753818
H        -3.21622780781455   10.28395120428255    5.62677459704298
C        -4.45700211357686    8.65877265450574    5.01242544869337
H        -5.25240086175328    9.28715400197102    4.64316379165746
C        -4.56101073988418    7.27475911664821    4.94972349975543
H        -5.43371623065964    6.79674852425489    4.53598055402915
C        -3.51666065387490    6.51237794569989    5.43323806422738
H        -3.57328962642036    5.43205315447695    5.40537259865978
C        -1.05877212866803    8.85439022588084    6.63894177769389
C        -0.17883942738877    7.84161620466334    7.07164735270063
C         1.01817975183268    8.22414738302040    7.65903204828016
H         1.71661690624238    7.47796267835870    8.01149782149411
C         1.34335692431546    9.56290300471995    7.81468130436107
H         2.28089908873649    9.83653095767517    8.27555878189512
C         0.47200296202482   10.55099552969155    7.38367120159429
H         0.72973193975618   11.59171169900035    7.50653491137769
C        -0.72713562871695   10.20076104903150    6.79842824678517
H        -1.39992572480950   10.97592851280819    6.46494843181280

