47
CSD_code = HABHAT | q = 0 | S = 0 | Stoichiometry = C22H22ClNTi | MND = 10
Ti       13.22721354972118    3.25418486068645   19.20230864136864
Cl       11.51292245999732    4.29310041100623   20.05559829271504
N        13.99414008790013    4.66861521649420   18.32290448475910
C        14.47917147881037    5.50923145543387   19.30329207582826
C        14.73443892306859    4.99310904350176   20.52986621490310
C        14.71228335380307    3.50076408829414   20.62480605818729
C        13.94742126399532    5.07699242470501   16.99323087547860
C        15.10485083503501    5.43219354234411   16.28204476991696
C        14.97594522034028    5.81103910817552   14.95375910959667
C        13.74130535654251    5.83884240275655   14.32835014614868
C        12.60273052924538    5.47289674469523   15.02891840512720
C        12.70424170071014    5.09451848719019   16.35318356981419
C        15.09597197534540    5.84693463560918   21.71103992044551
C        16.45258205322985    5.35157846517339   16.93654122328432
C        14.46652602770510    2.87528454490289   21.92937265026280
C        15.25272627651980    1.80487108690415   22.37161068222197
C        14.99664903520066    1.17932275488073   23.57680100776918
C        13.95214176950164    1.60949341412347   24.37767581241748
C        13.16344552664266    2.66988592024579   23.95741074679378
C        13.41162323538316    3.29414734890774   22.75117268929309
C        12.17326927564618    1.20399409099579   19.25431966117932
C        13.56170475462676    0.97764882908285   19.33948182837507
C        14.15217282118704    1.42306185657331   18.13213346522349
C        13.12226193595392    1.91265880681509   17.29973513322017
C        11.90156582815734    1.78166818165212   17.99573486408446
H        14.59128110616240    6.56708467011423   19.06619515193228
H        15.62594189064780    3.09108022017236   20.14823935078662
H        15.86275365522251    6.08141055661994   14.39804023393596
H        13.66843020047731    6.13959306542066   13.29414168481025
H        11.63806867108988    5.48984055121860   14.54385220104450
H        11.82472205635008    4.82377905143466   16.93359198230699
H        15.84126908465395    5.34681740361605   22.32792807907276
H        14.22359913850097    6.04217982794347   22.33565846129233
H        15.48810200755583    6.80608091420048   21.37737603352502
H        17.22764873574659    5.19583121935405   16.18948090532781
H        16.47445995093000    4.52901811843074   17.65477860578336
H        16.68128143257931    6.27224684751154   17.47319154944829
H        16.08227485990150    1.46873676732355   21.76089313554871
H        15.61900457083580    0.35540327462512   23.89656137951574
H        13.75343970529122    1.12275997771036   25.32083684410753
H        12.34500325307524    3.00862516680021   24.57638454916586
H        12.77773861501766    4.11131142342472   22.42855730776252
H        11.43348489234961    0.89598066219412   19.98486699691097
H        14.06535582735906    0.43819418542090   20.13224149253419
H        15.18681398377356    1.28329184181020   17.83987893985126
H        13.23735716310201    2.22394152302503   16.26864289844697
H        10.91626392511104    1.99205501047353   17.59596988847364

