76
CSD_code = HABHUP | q = 0 | S = 0 | Stoichiometry = C30H39NO5Ru | MND = 6
Ru        2.00963945341092    2.47454955435988    2.14818303506428
O         3.21005391616362    4.06740130513337    2.59664174182469
O         3.43066312801261    1.51984211367995    1.05365836757617
O         1.45519699611701    3.54980671353220    0.51846511541769
O         0.74263992807430    0.92915993795018    1.60268512402151
O         2.67548686611665    1.40107206447358    3.78585340940011
N         0.86549404706308    3.42139338040620    3.33622012789820
C         5.28831285524385    1.46356626090978   -0.40869529906816
H         5.51354348071911    0.57413630610881    0.17401984614221
H         6.09605858159413    2.18340253479061   -0.29236618338166
H         5.21100170698156    1.20129434684990   -1.46161824127183
C         3.99256759404103    2.07589274381647    0.08212867662868
C         3.50846438081216    3.19072307125344   -0.62381955145498
H         4.09859898374299    3.54238495551361   -1.45671428666818
C         2.28908097710058    3.82349504168818   -0.39219581572129
C         1.88785645226877    4.93319401741934   -1.34391583337814
H         0.92745446451103    5.34169201897890   -1.04076361104432
H         1.81418342321727    4.55058970973706   -2.35944762626529
H         2.63765650561776    5.72082010727389   -1.32678611649611
C        -0.46137586334268   -1.08992997316960    1.76290195747407
H        -1.29725640136560   -1.15921225364141    2.45569268372574
H        -0.01176019136262   -2.07475415981973    1.66439068371194
H        -0.82215008770051   -0.75536243575678    0.79430834587985
C         0.55381082485007   -0.09796776958824    2.29572379424372
C         1.16668089471399   -0.42318038254934    3.51346215349699
H         0.86120100971290   -1.34723276572187    3.98067577852708
C         2.15810115248578    0.31186301311430    4.15922227819049
C         2.68812613667169   -0.25080061215525    5.46470200123699
H         3.12744267558015   -1.23122355495229    5.29719025279120
H         1.87544150823775   -0.35562404674781    6.17989119448340
H         3.44386129237680    0.41887240725230    5.86641371935927
C        -0.26378800012539    2.79851874837037    3.84746010054848
C        -1.28313799810947    2.41253490443999    2.97550474133427
H        -1.19712213997603    2.67787762698189    1.93173479602638
C        -2.36720477512387    1.70412696465007    3.45501106483999
H        -3.15486109889503    1.40814408988518    2.77783639662503
C        -2.44720572302292    1.36993841867034    4.79821720852739
H        -3.29327361890887    0.80958569408225    5.16745974117528
C        -1.43932526712594    1.75526792099806    5.66747879400116
H        -1.49901535617714    1.49386296656496    6.71393564174827
C        -0.35485137527789    2.47429090865353    5.20340945684754
H         0.44841045812104    2.76147898356534    5.86709710547109
C         2.62469775488130    4.92861772934728    3.32866867528233
C         1.30756579580596    4.59285934515440    3.81252970022923
C         0.61055725108098    5.45317688766225    4.68440956058159
H        -0.37771470061377    5.16009969275880    4.99913761298216
C         1.18288344260216    6.63433218343065    5.07599949193862
C         2.46835977432650    6.96550823944755    4.57923619898894
H         2.88749866115103    7.90753720688858    4.88980918232130
C         3.19817018259928    6.17638893578538    3.72992179133801
C         0.49409080375299    7.61552174831851    6.01135830622664
C        -0.87951398092029    7.11823644983677    6.47011521254454
H        -1.55182678408137    6.99158685560111    5.62510693607177
H        -1.32208034289232    7.84735643603042    7.14579240536111
H        -0.79559506271989    6.17362301437493    7.00208617388116
C         1.36718645976591    7.82029017832522    7.25773511426598
H         1.52619782903596    6.87068127265599    7.76393158376643
H         0.87681451195978    8.50245236149684    7.94899296255109
H         2.33737413031705    8.23627663602819    7.00206138841714
C         0.29981627312458    8.95425727065726    5.28531781370375
H         1.25070969488100    9.39422583132752    4.99885399870532
H        -0.21921985283073    9.65827071606893    5.93229391551205
H        -0.29380714632407    8.80899915828546    4.38546319690747
C         4.56500671726756    6.55995789876981    3.18705483237324
C         5.02650675556947    7.93970795497746    3.66397223123756
H         4.33619333216263    8.71730613932197    3.34422162467812
H         6.00184331223090    8.15905581463200    3.23454248385813
H         5.12395484611662    7.96916569163690    4.74689536445196
C         4.49734067363444    6.57434526431634    1.65304759269589
H         4.22687752190506    5.59203822768869    1.27631066133271
H         5.46459516460200    6.85091613259099    1.23841454825692
H         3.75452640401158    7.29523594507035    1.31561633619786
C         5.58839865974185    5.51444716042218    3.65098163713551
H         5.64220265744102    5.49656094479206    4.73783248958123
H         6.57405866831575    5.75467726294916    3.25775288981310
H         5.30432879505549    4.52639653634839    3.30128331732418

