83
CSD_code = HABMOP | q = 0 | S = 0 | Stoichiometry = C32H46BrO2SiTa | MND = 5
Ta        6.17794731208596    4.76110582532942   10.20135326225618
Br        4.84145675007012    4.65248118855903   12.33980220938025
Si        6.29329750548677    7.43811387692766    7.46721953026963
O         6.19580937728966    6.65001311392653   10.43179993086266
O         7.03148497799996    4.71601042686557    8.63202145804559
C         4.96073354972451    2.98437838742403    9.54823175590133
C         5.59576070959299    1.90290733772049   10.01595246109168
H         5.21668222759564    0.89705113562578    9.86297277330698
C         6.85562977338714    1.97607975268764   10.75383295377844
H         7.26619097636241    1.01960748569534   11.06405431533953
C         7.47843156149576    3.13115433038245   11.00855892325806
C         3.97589345772760    3.48643020261466    7.34593441275771
H         4.45634411716744    4.46286361585301    7.38904222652559
H         3.05450764279101    3.57649908464410    6.77419069945878
H         4.64231658596985    2.80679250222226    6.81744516727858
C         3.05600257640848    1.55850603075501    8.64404852126088
H         3.72310620250114    0.87790067589431    8.12013460077361
H         2.12409765388259    1.61541749694434    8.08584559268373
H         2.84130200400986    1.15526619334555    9.63049015522611
C         2.65900436145007    3.88191278428748    9.44668576724989
H         2.45435799108692    3.53163571664677   10.45655984279014
H         1.72500306044215    3.89482974804667    8.88881056847751
H         3.03372135694651    4.90422750808354    9.50648480794882
C         3.67605937132029    2.95711794052459    8.75881788869781
C         8.47634497725319    3.60671489112705   13.21895015166663
H         7.87857928908036    4.51119716223359   13.30951870198997
H         9.40146368034804    3.74808576490827   13.77372404619444
H         7.91838129705702    2.78978509176368   13.67089504349466
C         9.56019208616787    4.46330564406002   11.12175602558920
H         9.76097664344394    4.26823338732170   10.06861102084445
H        10.51266736581803    4.59558374826920   11.63143036510903
H         9.00378203269506    5.39934832106021   11.20159794217517
C         9.65566507659648    2.03109392587514   11.67234935029680
H         9.18891693006254    1.20641441039835   12.20422309449317
H        10.62289096038830    2.22371961045485   12.13134384141099
H         9.81601328828581    1.73635532604840   10.63786667153929
C         8.78252124031208    3.29171226452924   11.74552587994793
C         7.13702025254671    7.56870702629536   10.21791351461451
C         7.39103084369748    8.00319236702036    8.90832863390407
C         8.42935612881295    8.90838626836589    8.70492580560204
H         8.64008581148189    9.24367042207304    7.70094468676184
C         9.18000057880701    9.38766322039716    9.75840080561604
H         9.98014448218361   10.09091304847002    9.58096020523318
C         8.89146914334951    8.98052611754228   11.05113262397334
H         9.46784034499128    9.38054194376207   11.87049155468317
C         7.88111070228641    8.07026443411278   11.30555503323359
C         7.50378356851440    7.63850931231654   12.70422477573391
H         7.15940025071331    6.59707283091296   12.65688222923246
C         6.32111341792235    8.48519583940413   13.18630718553765
H         6.59914202491120    9.53686394768587   13.22503054546735
H         6.00792932645928    8.16328809806138   14.17650785685992
H         5.47794357340557    8.37190061122594   12.50866819541771
C         8.65672827249801    7.70471901695909   13.70248648634846
H         9.53942067723598    7.20144062241841   13.31285568095690
H         8.36201771583593    7.21687748377632   14.62905565771676
H         8.91433466611457    8.73530705996715   13.93488190787882
C         7.34146108542159    4.74776418761640    7.34879179619088
C         6.99374416510403    5.88874815968141    6.60214168748409
C         7.22933163549803    5.87539730499417    5.23375268042306
H         6.95506136898352    6.73889666716813    4.64943183542941
C         7.80359701975443    4.78308203347245    4.61210398081094
H         7.96996221441944    4.78975033728094    3.54519794167570
C         8.18210414215873    3.68663675974175    5.36549730280075
H         8.65078550282592    2.84439534015571    4.87894385896788
C         7.96962407786858    3.64885802882616    6.73408697276419
C         8.40388580065082    2.45948873801538    7.55642198679028
H         8.19544161096449    2.68288332852779    8.60848836928361
C         7.60713697951289    1.21111456601001    7.17323098932191
H         6.54558314838236    1.37905448268779    7.33931937360581
H         7.92011560774435    0.36682187585088    7.78354679134365
H         7.76097369181691    0.95764407348205    6.12688909675679
C         9.90658258068676    2.20992714650069    7.40679776943267
H        10.15514635381532    1.92199139894742    6.38844458221238
H        10.22000139640901    1.40765725456780    8.07185915853265
H        10.47078485398731    3.10665064258713    7.65535469316925
C         4.43991735379373    7.28502362107192    7.93382842422910
H         4.27684685400059    6.71068884554822    8.84253642272361
H         3.86209278621700    6.82888105003477    7.13345372201752
H         4.02892755293862    8.27690875501817    8.10576579217511
C         6.32803959998389    8.84410781729776    6.17924012591728
H         6.10870630253890    9.79791246552675    6.64580613880540
H         5.58258173673182    8.67938681209068    5.40959113964051
H         7.29175682788226    8.93073673192115    5.69134202312975

