71
CSD_code = HABPUX | q = 0 | S = 0 | Stoichiometry = C18H34B18Ni | MND = 10
Ni        5.74215006975025    2.26210017271823   15.14226810303383
C         4.40011487284136    1.48456174346408   16.65454749967087
C         4.47589523189616    0.57757344293302   15.41108034185147
C         7.80662495647782    0.49752869528761   18.83074374566931
C         8.61497178401472    1.61825149244312   19.03838101551245
C         9.59319029449943    1.64679880606740   20.01304625201636
C         9.81416698555313    0.54816988369286   20.83462757307605
C         9.02301523489803   -0.57488084263739   20.64216760484826
C         8.04646645518599   -0.59642449431754   19.66286106697365
C        10.87335025713345    0.58973916668089   21.89568708273493
B         5.89003152372129    1.95484888273628   17.17251279121594
B         4.96533308779909    0.70961079662306   18.06571661230319
B         4.00984766198671   -0.16386788817317   16.89508234618256
B         6.05077027136013    0.29174776035052   14.91322639317680
B         7.09082241582478    1.15606270869748   16.10393741401910
B         6.68447030040234    0.47854063432060   17.70943904959308
B         5.52312762309006   -0.87156185457945   17.49216273220912
B         5.10315871436073   -0.94918120309530   15.77543602828535
B         6.77381646764234   -0.58826599425533   16.25940812346328
H         3.53910200032216    2.14715443435188   16.72949781602510
H         3.65927915820634    0.64725652916695   14.69670266893738
H         8.47668836005028    2.48859908884976   18.41469198764097
H         5.98953949090566    2.97463982112976   17.75649013160140
H        10.19975252568343    2.53308432899771   20.14143198775776
H         4.49629746618001    1.00750016900908   19.10135637295360
H         2.87923128769483   -0.45256879401745   17.03452282287299
H         9.17487452496715   -1.44599440369047   21.26567097343917
H         6.27928914807843   -0.01754999760080   13.80278239968462
H         7.45329386426604   -1.48994610617510   19.53976128160115
H         8.21423624806053    1.46226727009646   15.95280600448337
H        11.00490983151742   -0.38822683378170   22.35250761595425
H        11.82520752164251    0.90942012675978   21.47383023061062
H        10.60031094026693    1.30028510389681   22.67632416266561
H         5.51083963293688   -1.82855765197570   18.17347094249417
H         4.73902058961192   -1.87778684601211   15.15479850194374
H         7.65062037926461   -1.35293616995107   16.09706300574923
C         4.33355461402141    3.59324772610095   14.17378582112393
C         5.18803150524133    4.31446216305290   15.23176573253006
C         8.76564578780014    5.10193832076182   13.23752226140143
C         9.42121071237495    4.84681664554917   12.03285284967736
C        10.70264679412991    5.30273863812071   11.78156708536470
C        11.39480916848378    6.03997109007343   12.73080573480224
C        10.76076852918729    6.30083617650327   13.93952191359676
C         9.48147798603264    5.84087559288353   14.18283489863359
C        12.78147509700229    6.54959542770104   12.47262335811713
B         5.24293423614301    2.64133693053197   13.18102382540619
B         6.16048119750240    5.51412120043759   14.55683585539348
B         4.53263391836922    5.28353557618610   13.96702564387424
B         6.81958290141632    3.94629089176206   15.10364270677000
B         6.96306310931400    2.85558808708969   13.67575391613114
B         7.28905134699901    4.59405045776315   13.52135408932153
B         5.87570601252615    5.41080694154882   12.80725292464786
B         4.59526564686015    4.20053825045079   12.60168297020363
B         6.26927366131265    3.74720135582626   12.29514729693330
H         3.32330677271484    3.30991075293045   14.46577920263935
H         4.72641476974962    4.50112763216180   16.19814393692412
H         8.91320719840543    4.27615531599166   11.27074229282858
H         4.74543818951041    1.69727797010125   12.67876988071292
H        11.17271264732670    5.08316672459875   10.83236883480440
H         6.41788401591469    6.46486460419124   15.19653549818247
H         3.62518758513075    5.98442282271204   14.22428624901432
H        11.28079745038069    6.87296712935198   14.69614640149679
H         7.53374515589382    4.06692741582759   16.02880405757928
H         9.02142912352215    6.06508327131061   15.13372970292603
H         7.85866973485958    2.13706871512832   13.42921715561260
H        13.46467076484479    6.20811151660717   13.24941744067824
H        12.79218386753072    7.63955691637587   12.47662630371243
H        13.14965964661866    6.20474240273576   11.50941122833103
H         5.98841899576924    6.33803275892579   12.09488902517706
H         3.70541768045902    4.17921431892798   11.83332812813539
H         6.64512699854949    3.50452628178181   11.20816509506505

