65
CSD_code = HABQOT | q = 0 | S = 0 | Stoichiometry = C24H34Cl3O3Ta | MND = 6
Ta       17.28724428278665   10.01131152957441    4.22285509564545
Cl       18.34891562821870    8.41527032202834    2.81972903595878
Cl       18.19393065546727   11.64891268402677    2.93900032012595
Cl       16.89092190165680   11.62775770666639    5.90410930801214
O        17.13395618662748    8.74371645777163    5.47417317503427
O        15.70696032017345   10.01921980939153    3.38021392886374
O        19.71604369713402   10.19863149089126    5.19597616526214
C        17.47186651736656    7.46654367785547    7.46044473911395
C        17.12952816535071    6.34157595227557    8.19621913498193
H        17.60441182765850    6.16697367210000    9.14898392927449
C        16.18678305945519    5.44191514171143    7.73475986093077
H        15.94159398289563    4.56823543995589    8.31937115650014
C        15.54392154108885    5.67419798463167    6.53156645872454
H        14.79165324580095    4.98498445285907    6.17713719143750
C        15.84901207942797    6.78897739580207    5.77038436147313
C        16.83450972237897    7.68591146553430    6.22743580854458
C        18.44299670266620    8.49540956177955    7.98410143758359
H        18.73291347540141    9.13356726397782    7.14431220634918
C        17.73357491663345    9.37661298767319    9.01781444761465
H        18.43016499558825   10.09820524343703    9.43874756152340
H        16.91707249455602    9.92071490522138    8.54840221743266
H        17.33050520890333    8.76997389427304    9.82610858233913
C        19.70112190538763    7.86341898074297    8.57903983418695
H        20.42738149067018    8.63732709310692    8.81845225750351
H        19.47426720920186    7.32723906803241    9.49684094747915
H        20.15242282438476    7.16798748923080    7.87467115786146
C        15.10793011289753    7.10837476551346    4.50553788411216
H        14.58158012527035    6.22629629356053    4.13813394809353
H        15.81585197037740    7.42838941401951    3.73477657171776
C        14.09007881662210    8.24022977219183    4.77491552677403
H        13.23569504146223    7.83194377666159    5.31730317156592
H        14.56634549188808    8.99861646688760    5.40830086479891
C        13.63555855899163    8.88883641953379    3.50191834028927
C        12.39587954510713    8.63284565570655    2.93920475967442
H        11.72518643155865    7.94430120910822    3.43148275307865
C        12.01466772394703    9.25622232747806    1.76472775529251
H        11.04533517894723    9.05076193026777    1.33629543038071
C        12.86780906350061   10.14957708928126    1.13885978759512
H        12.54969906368225   10.63144519223630    0.22870116589133
C        14.11896787987863   10.43131071473596    1.66392232475097
C        14.50148963470176    9.78514629195291    2.85321627925989
C        15.08127318182427   11.42561795826161    1.06199594954904
H        16.09277734963865   11.01181205034386    1.16811957482216
C        14.83403352823276   11.70491038897914   -0.41731184496697
H        14.79938999700873   10.77799867961343   -0.98501397105526
H        13.90213832464721   12.24610498000970   -0.56383304683385
H        15.64272175555223   12.31719681849648   -0.80899394081810
C        15.01422519788123   12.72774192074716    1.87134810787913
H        15.23674575764994   12.54251870883910    2.92202234283595
H        15.74156859793604   13.44050605794442    1.49095343848347
H        14.01992312734400   13.16491215921305    1.79829411480462
C        20.26406612168040   11.47136474929294    5.56970015243757
H        19.62794867933388   12.22350129183860    5.09684752489607
H        21.27528113439320   11.56658253386604    5.16410736795284
C        20.26217033291777   11.67418191986944    7.07960635874854
H        20.68444733622202   12.64805625118996    7.31028365469439
H        19.24132083809345   11.63834091288767    7.45042669444284
H        20.85349848401238   10.91068188850294    7.58041129673351
C        20.67997492652296    9.14272520726777    5.12514728830082
H        20.09282843542890    8.22027580693444    5.12992366619110
H        21.31068354128791    9.16828147233731    6.02180571464015
C        21.53045905001034    9.19522741635645    3.86159382748585
H        22.16556447171681    8.31488090663129    3.82286145783153
H        20.88382635042773    9.19956471018799    2.98786556665380
H        22.16248480451578   10.07962622069904    3.83689182126182

