42
CSD_code = HABRAG | q = 0 | S = 0 | Stoichiometry = C13H23Cl2N3Ni | MND = 5
Ni        8.90509912457346    1.08661367865182   11.68025097801675
H        13.55974095535444    2.86998834975177   11.66016247460968
H        11.27708946891293    1.12863726184956   10.60102215314426
H        12.93517744544659    4.34084355989868   10.92219510970174
H        12.94738279750294    2.83780516113890    9.99951025807519
Cl        8.76105624246605    2.05772350017395   13.51001496423749
H         9.33865868119217    3.24830276074215   10.92509667690243
H        10.48412607269048    3.32610017112162    9.56937674938532
H        10.35603252272575    4.68382084682610   10.70220725120557
H        11.27655621846498    3.32650550505421   12.52355143508492
Cl        8.90394160513941    0.36263299141344    9.73397252058441
N         9.95428994881585   -0.68551016839968   12.50667706180917
C         5.84410927576588    1.33744746499493   11.47465873286769
H         5.03712707249443    1.56327327565790   10.78319446027978
H         6.76927966626078    1.79369377729427   11.08662052591415
H         5.62167331434482    1.78199592273175   12.44288203292334
N        11.11679390134349    1.51398243709675   11.53514203945425
N         7.31438304701999   -0.38235399942193   12.31815001260010
H         7.20636650164955   -0.05009662294697   13.27960772790720
C        11.88410353140731    0.74287834103062   12.50652199060767
H        12.93326264219943    0.60742833358068   12.20776496361170
H        11.86048160394512    1.28807175414901   13.45802602026201
C        11.25264781182889   -0.60976572275591   12.74535336893542
C         9.27581035888863   -1.80337452271621   12.69782238278518
C         7.80773176558927   -1.75388310444796   12.33940026711216
H         7.24399463246996   -2.39658035535545   13.03066236767940
H         7.70624113436994   -2.16167620559285   11.32629743800067
C        11.39182882267599    2.95165206382070   11.49977761204187
C         6.05332371820786   -0.16853158202985   11.60561796448240
H         6.17179310756875   -0.60057767934612   10.60484793925286
C        11.95779597315028   -1.71032623775487   13.21468226621401
H        13.01685978526441   -1.64385827182693   13.40915399665066
C         9.90595737571433   -2.95038565818146   13.16452383091135
H         9.34807076596883   -3.86106969495940   13.31790880179839
C        11.26599631395809   -2.89331722621451   13.42471900942256
H        11.78541551723341   -3.76760803991055   13.78812897989532
C        10.33441517062642    3.60142589915407   10.61174537956443
C         4.86671148849046   -0.82346388949687   12.31414663978916
H         4.97704207143790   -1.90491648610818   12.35307718590885
H         3.94774134869502   -0.59686361842528   11.78038994330054
H         4.77557032912064   -0.44234115820806   13.32996345754182
C        12.79942086902543    3.26497718796527   10.99017502952643

