51
CSD_code = HABXUF | q = 0 | S = 0 | Stoichiometry = C22H20ClMnN2O5 | MND = 6
Mn        3.17162747240800    0.06612239552233    4.44658106725785
Cl        1.81934525771243    1.01157433630010    2.97405673900599
N         4.71949859490727    1.02146632211165    3.44723490010006
N         3.36950344829036    1.73324166066703    5.51353544705571
O         4.48316563868064   -1.02448645147513    6.08251991565004
O         3.64546033514306   -1.33182430574420    3.52192957046465
O         3.18879324026339   -3.72577065879877    2.49546936899677
O         1.83575343768244   -0.40796958023701    5.45029018234467
O         0.16451709332427   -2.11882257242767    6.58867436773285
C         2.79320048077005   -4.94182461180179    1.91235379983594
H         2.19974034997496   -4.77726748331979    1.00788578495050
H         2.17991137729713   -5.44231489335782    2.66003531972117
H         3.65656557252787   -5.57189923077776    1.67132382532600
C         3.89727495986985   -2.84704207608442    1.73104318373811
C         4.39507333728890   -3.09131520637351    0.47373000049384
H         4.22830602314233   -4.04114712738307   -0.00906516778202
C         5.13217176673599   -2.10959267322498   -0.20564370656973
H         5.51325679892425   -2.33619660967198   -1.18944521037832
C         5.36487631125099   -0.89025485149403    0.36246238650331
H         5.93865186290416   -0.13989332749471   -0.16001754333380
C         4.86231801713437   -0.58642868211346    1.64575494534225
C         4.10857311644926   -1.57388715728947    2.34530349046233
C         5.08201039001088    0.67820970242176    2.23348207920660
H         5.58141072275323    1.41398327791224    1.60631251337036
C         5.04812664766631    2.26702633554808    3.94628721062631
C         6.07070613615731    3.09364489324049    3.47451787243394
H         6.73099520697769    2.75110316843349    2.69276352712054
C         6.25481018897610    4.34766356379385    4.01686773510101
H         7.04344187478397    4.98328488165643    3.64422821163299
C         5.41822992244929    4.80003579467345    5.02996461910392
H         5.54384525653061    5.79594558074440    5.42669082371110
C         4.43368487058451    3.98171613452404    5.54270803017580
H         3.79334298005119    4.36381050724188    6.32217322478750
C         4.25936211824086    2.68704237865257    5.04525931895862
C         2.77337274461584    1.91654527196317    6.68111255599574
H         3.05832719591843    2.78329447388757    7.27158712121066
C         1.80637741439638    1.08545307389068    7.26748881836300
C         1.22625743350960    1.41582408551057    8.51748644234317
H         1.52605133109520    2.33579694010471    8.99651004046439
C         0.30729677064631    0.59781541356055    9.09983216894755
H        -0.13368587737088    0.85757263844187   10.04974443441765
C        -0.08392831107447   -0.60616219617953    8.48304103252247
H        -0.80483711192573   -1.23264064760561    8.98367201296648
C         0.43831661720860   -0.96929230864445    7.27011388381916
C         1.38469465384756   -0.11523040506158    6.60827997375298
C        -0.83373635329332   -2.96740380812425    7.09435643868530
H        -0.55246028635606   -3.38370778758756    8.06838553638502
H        -0.92885417362114   -3.77533258342753    6.37072992939281
H        -1.79267712607290   -2.44785853295974    7.18618038562204
H         3.85608700227425   -1.28044685424824    6.76873622044459
H         4.77724726833304   -1.84066020789180    5.66057517152022

