46
CSD_code = HACBES | q = 0 | S = 0 | Stoichiometry = C19H21FeNO4 | MND = 7
Fe        2.09527022071062    0.95985700579029    1.34906182361997
C         0.53606804427249    0.71516013473164    2.84402190668207
C        -0.06218444990539    0.78182186520069    1.55243547961179
C         0.35801491220167   -0.13998469877007    0.57740582401635
C         1.36909778626497   -1.08304439697904    0.91249895242718
C         1.90339818265126   -1.97835616244097   -0.17766396540035
C         3.03164268815766    1.13813190126025   -0.12603762125411
O         3.69653319257776    1.27547179882159   -1.05218611589435
C         3.37492692547359    0.42984240479144    2.48961911488770
O         4.23236697562065    0.17352310738901    3.19900441404428
C         2.25888696119558    2.70895614422383    1.53034208697469
O         2.45551251805949    3.83173510910193    1.62005022840046
O         1.45336608360776    2.50042513864412    4.15627726203473
C         0.25586845812638    1.81412126365152    3.84503554704840
N        -0.24220002111041    1.29019865130732    5.10337043016111
C         0.17159034570098    2.26589279103806    6.10234114850343
C         1.56369749212312    2.66322081978096    5.56753626950786
C        -1.65373916096003    0.99576746353702    5.08237182099129
C         0.16822923730580    1.70713476812828    7.51625295805443
C         2.69030392636299    1.82593657896563    6.12063270234520
C         2.73762119517206    0.45923408770478    5.87684332290312
C         3.77548906509139   -0.30559336347849    6.37567087563887
C         4.77747065595528    0.28648867718697    7.12591346420030
C         4.73578725417968    1.64706860017436    7.37455935029458
C         3.69797994938621    2.41301583613577    6.87231374622917
H         0.60667392374663   -0.25324932019056    3.33338458540285
H        -0.78172563818472    1.55657264588342    1.30616263065671
H        -0.02283490601846   -0.07428256108669   -0.43685316901776
H         1.26594038157661   -1.61488958832631    1.85621782340132
H         2.02548031968211   -1.43299565301509   -1.11065280710495
H         2.86692737876857   -2.39417590782342    0.10569222268729
H         1.21802106443061   -2.81105423020928   -0.35113066210387
H        -0.45278331815095    2.55746420709196    3.40494560117517
H        -0.48318765660785    3.15958392750543    6.06365940765938
H         1.77176065726461    3.72243959028410    5.76615402525235
H        -1.85527475810171    0.29881379062215    4.27010650527839
H        -1.93234912627853    0.52707250577330    6.02377954108026
H        -2.26938852514551    1.89775437654411    4.93449638947409
H         0.67793127876134    0.74885876017592    7.54555912261548
H        -0.85182992879299    1.57689697513284    7.86896185736664
H         0.67948803844441    2.39776397722788    8.18220958022728
H         1.95108960024779    0.00495661334101    5.29524470825803
H         3.80500847835265   -1.36723576101774    6.17738360387049
H         5.58992140047433   -0.31051090526880    7.51360814438706
H         5.51587863296213    2.11519731458951    7.95721844649664
H         3.67265426434914    3.47679371687543    7.06348141690446

