41
CSD_code = HACDOE | q = 0 | S = 0 | Stoichiometry = C13H20FeN2O5 | MND = 5
Fe        9.14203778410099    1.68046609624068    3.97935479452776
O        10.14714798972967   -0.77164990968574    2.74091393165370
O        11.03482701828833    3.91036495099563    3.90476114087824
O        10.37410139270936    0.88901672388352    6.48776775304169
O         7.06527000345517    1.86906878155247    4.71387376406230
O         6.81228318295108    2.35736895401574    2.54043173716783
N         8.52708787293074    2.40775304932698    1.12084565062934
N         5.00472023555823    2.38359285286476    3.91361981508418
C         9.69850025107443    0.16696628218393    3.24695191705452
C        10.24135910632308    3.07000934676695    3.95492502388591
C         9.86577019491344    1.20007467406494    5.50276801589974
C         8.20111221426370    2.19080424586398    2.39903450634520
C         6.32742477487173    2.18592415559199    3.78332020958754
C         7.54555692703738    2.64926480505481    0.07567411610239
C         6.96052015946017    1.33996309908046   -0.45043769228321
C         9.90360746463579    2.32042832526997    0.67654676980508
C        10.51846147496808    3.69851530994848    0.44553930293523
C         4.16127520633189    2.76112788090578    2.79827221732118
C         3.63142081867653    1.54243934615863    2.04729043710773
C         4.40334197607895    2.19245568594658    5.22178097652822
C         4.34661911729640    3.49583202897561    6.01160684996877
H         6.74667988943913    3.28193325524146    0.46856241032376
H         8.03734030505944    3.18670374433064   -0.73703100441500
H         6.48711817826516    0.78750702826560    0.35691914014114
H         6.21908247167007    1.54290791271024   -1.21879002706952
H         7.74284602511597    0.71651958132456   -0.87665490142069
H         9.93253914807141    1.73662194659062   -0.24836020613989
H        10.47680505211985    1.79379480588832    1.44280248566999
H        11.54927294757747    3.58498944771769    0.12268828386554
H         9.97863566431641    4.25572517150369   -0.31707151367890
H        10.50695744692934    4.27066949671293    1.36817327361686
H         4.73684587984502    3.39434436998933    2.11988036270124
H         3.32937567161679    3.34851582321782    3.19319914582124
H         3.04387130226898    0.91012484507301    2.70842599235491
H         4.45632170200672    0.95539100323223    1.65320588558364
H         3.00292080495089    1.85987781660220    1.21989409158626
H         3.40001087722243    1.78554457767405    5.07791458683291
H         5.00966524393460    1.46355325121913    5.76271829154565
H         3.87961427943070    3.32166286553060    6.97654123515941
H         3.77197987071114    4.24989482806332    5.47855184925075
H         5.35257207379353    3.87243154410770    6.17508938096815

