157
CSD_code = HACFEY | q = 0 | S = 0 | Stoichiometry = C66H84N4O2Zn | MND = 4
Zn        4.87484699813870    6.26565127856277    0.00000832467690
O         1.39406970690087    0.36058167000961    4.42436168326463
N         5.48877931594689    5.24984643494514    1.65775998379801
N         3.64940528372494    4.68060296438133   -0.37551072826593
C         6.41907419896163    5.73071761322528    2.52014018905891
C         6.61228219988430    4.81278171814539    3.61093990291902
C         5.75533890207027    3.77218880904060    3.40339018597989
C         5.07323006778725    4.04597567461047    2.14856754882824
C         4.15775141702001    3.20758481728289    1.50532502984505
C         3.51245395080790    3.50316935473541    0.30112886574717
C         2.59549270105386    2.63355242116631   -0.41813099032496
C         2.17016649795401    3.33772165126373   -1.50560546726560
C         2.84095755102863    4.61008089592628   -1.46263401717202
C         2.67230522363301    5.59063860968625   -2.42065990263442
C         3.85619842799505    1.90418897736275    2.14698904344945
C         4.68028875497363    0.80693596364847    1.93782077672337
C         4.38518679827800   -0.40146883083242    2.54820487440529
C         3.28306019288866   -0.51932984456305    3.36945793638171
C         2.44873263378296    0.57800907237190    3.58675926840775
C         2.73861329354959    1.78694161230862    2.96608534873126
C         0.50530197830292    1.42288125854818    4.68301948049738
C        -0.36778964375934    1.80478830759252    3.51890213914651
C        -0.55879444178905    1.05080893569803    2.45330465794388
C         5.57955655387486    2.62896358181035    4.34414530770769
C         2.18420613559319    1.23604248889321   -0.10495484567939
C         7.56551430261606    5.02912061435160    4.73892200458661
C         6.97450984454392    5.94701807698974    5.81633807785884
C         7.97495668238187    6.21064549620248    6.93825571064299
C         7.39627543903804    7.10115073155222    8.03456141195395
C         8.39104664755583    7.32782335323202    9.17051603015471
C         7.80101470575697    8.18580180084685   10.28261670271706
C         1.27069750533847    2.90350241620405   -2.61433786140848
C         2.09854026631709    2.39976203446990   -3.80409817906828
C         1.24057772237455    2.12475956288024   -5.03553509469852
C         2.06394297497345    1.52764155178293   -6.17390897949138
C         1.23540114023834    1.30683460742360   -7.43681801126264
C         2.05234233066503    0.64267809359239   -8.53840396441091
H         1.95845999452443    5.37516764794122   -3.19995383258139
H         5.54399854472623    0.90433682536530    1.29671732075815
H         5.02215237238113   -1.25834830452606    2.38429423961919
H         3.04339755364117   -1.45108699113447    3.85674997594337
H         2.10679444093645    2.65227861886034    3.09637222504865
H        -0.12678857398802    1.06017583809408    5.50280217234577
H         1.05121022337094    2.30491476402607    5.04849227594374
H        -0.85580957636563    2.76419420910652    3.62421097705387
H        -1.19655543005180    1.36087110847168    1.64408772011124
H        -0.08318869318699    0.08868247178409    2.35309037733485
H         5.94483576802880    1.69782774239310    3.91498965076802
H         6.13103044119080    2.82457142864955    5.26067262103753
H         4.53280982065811    2.48718428535322    4.60135096341012
H         1.59070015495151    0.83880382412595   -0.92493013394691
H         3.04866977001380    0.59141027265983    0.03395240317126
H         1.58567751579969    1.19565124488151    0.80331264183263
H         8.48860622912205    5.47184687979410    4.35682190232873
H         7.83148692005040    4.07167182868297    5.19117535568000
H         6.67415424501405    6.89351955199117    5.36184924835840
H         6.07585451605628    5.48182502578733    6.22780455728083
H         8.86811181907503    6.68488507021409    6.52278254806334
H         8.28440755125148    5.25789385164945    7.37593310246248
H         7.11023182280048    8.06434857689815    7.60604758277279
H         6.49224175315321    6.63682953353133    8.43609462246871
H         9.28766533465918    7.81133152352236    8.77467799684097
H         8.69392372974673    6.36150016319985    9.58093376468855
H         8.52766339599583    8.33565322200623   11.07788404675248
H         7.50767758521043    9.15965271210321    9.89855457942300
H         6.92158456030817    7.70629073193329   10.70738418397257
H         0.64594402098052    3.74004168673916   -2.93550495601002
H         0.60071880668045    2.11124345119788   -2.27578767159155
H         2.85863388664472    3.14473754417548   -4.05060440538960
H         2.62104250023980    1.48682333758136   -3.50948379969661
H         0.78007549547626    3.05709121377902   -5.37240179406138
H         0.43454856439944    1.43495693225303   -4.77280409850440
H         2.89972105096371    2.19405439296890   -6.40253607840335
H         2.48634192293266    0.57365518015782   -5.84902142115222
H         0.85673477950327    2.26752277308437   -7.79256295426692
H         0.37308369502915    0.67981582840685   -7.19836076763403
H         1.45776870996811    0.52618436207825   -9.44171991600673
H         2.92962926302947    1.24083818311822   -8.77754170625659
H         2.39107851201001   -0.34134266661689   -8.22122477428196
O         8.35551767505896   12.17079222852012   -4.42446014891109
N         4.26100773617405    7.28139678918528   -1.65780701361456
N         6.10030136478637    7.85069334379485    0.37552046975142
C         3.33072700000190    6.80052583125614   -2.52020354785717
C         3.13758350364086    7.71843557662366   -3.61103758798504
C         3.99458091751393    8.75898774460319   -3.40351032126363
C         4.67662778792989    8.48522818346044   -2.14865144899068
C         5.59205146314775    9.32365107541157   -1.50537633499715
C         6.23730729164685    9.02809863308095   -0.30115295348316
C         7.15422718882028    9.89773637953398    0.41813536229916
C         7.57953544773997    9.19357472105181    1.50562163447774
C         6.90876131149456    7.92120794437070    1.46263187231855
C         7.07743991713404    6.94063612559661    2.42063676848411
C         5.89355412652656   10.62708649223373   -2.14698052895936
C         5.06950563983176   11.72434012316870   -1.93765797157324
C         5.36460103157243   12.93279363037171   -2.54795275519402
C         6.46667234473517   13.05069695702023   -3.36927347786977
C         7.30093083069011   11.95334292048482   -3.58676600628840
C         7.01106906020235   10.74437010990904   -2.96616406588545
C         9.24440680335331   11.10855974238041   -4.68298708119260
C        10.11730605774569   10.72673179808617   -3.51869812924598
C        10.30820574354020   11.48086202647410   -2.45318596099419
C         4.17049514085127    9.90213952047653   -4.34433031587526
C         7.56555147066496   11.29523091474164    0.10494321102358
C         2.18436275582069    7.50213295827543   -4.73903913156926
C         2.77532309470554    6.58419908633078   -5.81644760004781
C         1.77486684622736    6.32057056130787   -6.93835724937956
C         2.35350364472380    5.42997652802340   -8.03461414399326
C         1.35875900718144    5.20333689508660   -9.17059861724524
C         1.94879888889441    4.34529846569312  -10.28264971629613
C         8.47900104480411    9.62777865461956    2.61436508551237
C         7.65114669623278   10.13147858144460    3.80413304376307
C         8.50909991613618   10.40649832722658    5.03557416365352
C         7.68569834064020   11.00356733577346    6.17394687601363
C         8.51419496073874   11.22438121955566    7.43688366394300
C         7.69718488495742   11.88847410722757    8.53845789866588
H         7.79125953989508    7.15612282524496    3.19994882456599
H         4.20581020532920   11.62689393131027   -1.29654136874187
H         4.72768512913404   13.78968500897699   -2.38390383974934
H         6.70635013599177   13.98250019139473   -3.85647104188388
H         7.64285621558255    9.87902572676408   -3.09655351730328
H         9.87659502836687   11.47131135219143   -5.50267308828318
H         8.69862152348502   10.22648459411074   -5.04854191796649
H        10.60525385057866    9.76726537709445   -3.62377890049248
H        10.94593486458279   11.17094362099428   -1.64388894918767
H         9.83270619542998   12.44306790983693   -2.35322242345865
H         3.80507285212101   10.83329078738465   -3.91533464051010
H         3.61923166570337    9.70643018988062   -5.26095712646087
H         5.21727881618357   10.04396466619107   -4.60133184715099
H         8.15916083494163   11.69242547182666    0.92486693100029
H         6.70110696546973   11.93991031197084   -0.03386997706896
H         8.16399285549988   11.33560677720846   -0.80338271371281
H         1.26124572156958    7.05944838894173   -4.35695353892847
H         1.91844281983258    8.45959604417540   -5.19129388590687
H         3.07565984633261    5.63769724249102   -5.36194695089872
H         3.67398541410136    7.04935977737227   -6.22793385417888
H         0.88168310605564    5.84640466324667   -6.52286288974315
H         1.46547228638647    7.27331826171640   -7.37608183350252
H         2.63945218600808    4.46677273877140   -7.60605051055772
H         3.25759113483539    5.89420804077236   -8.43613021320053
H         0.46209627731045    4.71988872378516   -8.77478621464117
H         1.05595518373852    6.16966808530991   -9.58105181915734
H         1.22217577189351    4.19545880819107  -11.07794193536072
H         2.24207448081306    3.37144424980914   -9.89854810605877
H         2.82826905728831    4.82475584431090  -10.70739601801824
H         9.10376522601060    8.79123937748296    2.93551458794676
H         9.14897078854569   10.42005629981725    2.27584021053174
H         6.89107739431120    9.38647668670953    4.05063539171919
H         7.12861412343535   11.04440285260747    3.50952711423828
H         8.96964131534400    9.47418314780596    5.37243335545233
H         9.31510003024173   11.09634033697974    4.77285834490807
H         6.84993653777378   10.33712207972445    6.40253875935994
H         7.26327561750476   11.95754665546591    5.84907024127523
H         8.89289040509678   10.26370018249492    7.79261574352774
H         9.37649342217726   11.85144262776243    7.19847022892059
H         8.29172285484935   12.00498743010450    9.44179442578380
H         6.81992426746296   11.29026092249618    8.77755911834623
H         7.35840185962822   12.87248060526304    8.22128471361359

