119
CSD_code = HACHUR | q = 0 | S = 0 | Stoichiometry = C50H62Cl3N3Pd | MND = 4
Pd        7.21884717686365    3.42063010858301   -0.06449414619302
Cl        8.94428664412372    3.21766095752175   -1.55499743987858
Cl        5.36849346518305    3.43030531665502    1.27129999445048
Cl        5.41777650784535    0.79111028720219   -4.73492656785748
C         8.16690449025594    4.78023710171168    0.98759250122782
N         6.36727569876606    1.89201704044386   -1.07214393459746
C         7.87945771576701    3.66094682420020    3.18661496997514
N         8.44102198315986    4.63411527139839    2.30871120728981
N         8.75436644985315    5.93000197415846    0.56905361080728
C         8.75106045182577    6.38003555231839   -0.78043889901598
C         6.93529909742111    4.08057160967249    4.13161144908439
C         9.20608928936504    5.68653511291380    2.72092965535494
C         9.83700471330358    6.23787483643864    3.89739995815771
C        11.11819679288563    7.97902332351642    5.63434908893655
H        11.57074048788316    8.64582356284257    6.35315970167135
C         7.76914336921050    1.41537876278611    3.99715200435654
H         8.07551871286020    0.38253452897852    3.96434968377527
C         9.39040808937891    6.51811676486911    1.63158598147511
C         8.30450941239700    2.32782281434792    3.09851422206771
C        10.04429251203424    5.83560795889590    5.20376184037052
H         9.72340457679996    4.86555188935766    5.55378977593361
C        10.02317393614318    7.74397671192227    2.06723596135109
C         5.72042716940920    0.73888077846569   -3.04112238856266
C        11.49397434983405    9.65768962313259    3.70428264007515
C         6.13424366664898    1.88704743302066   -2.37885379317438
H         6.29546867049161    2.81209886995708   -2.92196115622262
C        10.33063868992117    7.48745841535644    3.47517615816939
C         9.36443998677502    1.92112354228453    2.09188458821946
C         9.96015691978381    6.47421352798174   -1.48222415664885
C         6.84063565868310    1.81095189421976    4.94183970065679
H         6.43181547362461    1.08450521730280    5.62887153607090
C        10.64231603084268   10.09937649344080    2.48146756347790
C         6.40787358791387    5.49702947548022    4.20982950562656
C         6.20947824366262    6.66328193445072   -0.63991774376096
C         6.42889869557611    3.12580741252616    5.00458319547359
H         5.69169593753733    3.41507642285508    5.73678603821843
C        10.67486442486615    6.73436845815266    6.05888888844800
H        10.81832812389052    6.45573312069991    7.09288496310573
C        10.98485436032989    8.37018153132705    4.30134469625180
C         7.52796677808710    6.69739793103428   -1.38356653216002
C        10.20395174324653    8.97582166378275    1.58187637147161
H         9.96360663958838    9.22270027587749    0.55786102419154
C         5.80785838463779   -0.41752524427658   -0.96805944076929
H         5.69408861989527   -1.30953081041606   -0.37261626973325
C         9.91018237510825    6.86297745097933   -2.81425696337082
H        10.82410683600024    6.91519632975139   -3.38442242792907
C         7.53508210993657    7.09662135042848   -2.71464425415061
H         6.60461782132022    7.34785063737821   -3.19994721198274
C         6.66958793619667    6.13017594485977    5.57927187022738
H         6.17443533832856    5.56818993390393    6.36686433379319
H         6.28051640569316    7.14630128941415    5.59023921273375
H         7.73277267531255    6.17200076725584    5.79963952523999
C         6.20732077566422    0.76811590309650   -0.37597772198889
H         6.38523324734527    0.83476651439276    0.69482404674922
C         9.42337001625930    0.41639590030340    1.82688517740496
H        10.07305639125021    0.23111473345820    0.97414672308657
H         8.43736740415267    0.02130277788553    1.59162626028301
H         9.82788015101918   -0.12247519781456    2.68177504387327
C         5.55468014640469   -0.44170096202320   -2.32997273830132
H         5.23899731904740   -1.34408728059404   -2.82919732865400
C         8.71293656521760    7.16694421817153   -3.42990117527669
H         8.69840093858698    7.45886698981435   -4.46969612807666
C        10.73759306910579    2.40705613029868    2.57187313869144
H        10.99197261903358    1.93217191137623    3.51851032610937
H        10.75454326028619    3.48449072813401    2.71630391251063
H        11.49831439360432    2.15063743940811    1.83828828453739
C         4.90545132796577    5.51958502342260    3.91285234813260
H         4.70201152705194    5.01096181715811    2.97508953598104
H         4.55842507339076    6.54853233624228    3.84310810370777
H         4.34698289096605    5.02132561861487    4.70069468801948
C        11.30566503426767    6.15737048320457   -0.87048236310258
C         5.63749232482145    8.07700740977244   -0.50741196592760
H         6.33391514641012    8.72198144854567    0.02571740869619
H         4.70262585893380    8.04662635326875    0.04705654126664
H         5.44604287859006    8.51563310026475   -1.48371192883218
C        12.26124532459339    7.34381833647435   -1.02244406647742
H        13.17638256979124    7.15312945119154   -0.46700809354521
H        11.80684796994218    8.25646389986144   -0.64435771209052
H        12.52534361472252    7.50074653154291   -2.06490101648510
C         5.22347387818232    5.73078519399761   -1.35223960783671
H         4.34069058640733    5.58332595444847   -0.73360554764799
H         5.70349973294535    4.75148316220469   -1.51582614347587
H         4.91502640949285    6.13559485219522   -2.31343192187723
C         9.38985509711102   10.94982223086591    2.88964986743591
C        13.02026590534060    9.56790418207985    3.37793324957153
C        13.29549258904868    8.58007922047954    2.24655232856374
H        14.36765129610415    8.49378247594451    2.08205873939967
H        12.83530482952868    8.91219624032535    1.32158940966718
H        12.90653054665810    7.59485346083234    2.49164033128876
C         9.84080494765126   12.28767675429719    3.48609171841582
H         8.97153416894171   12.90671161109869    3.69658919848636
H        10.48008978487861   12.82508121676807    2.78889108218220
H        10.38229377162241   12.15845307774943    4.41901437968901
C         8.50344145059024   10.21491079893112    3.89548634779057
H         9.01816363851555   10.05279146099776    4.83825470593964
H         8.19423738859165    9.24791092365442    3.50636478274003
H         7.60957440236565   10.80321463118547    4.09328810039858
C        13.56006913530594   10.95052098229383    2.99032828961649
H        14.64329175758569   10.90777365285588    2.90148176327260
H        13.31091777594392   11.68997500089332    3.74836744251623
H        13.17144676349650   11.29210657335123    2.03473206576888
C         8.55235357851624   11.26248811827760    1.64184624217024
H         8.06591314207843   10.36829358087203    1.26069886820255
H         9.16869130895016   11.68954246127762    0.85334590463987
H         7.77613388075633   11.98319895360525    1.88998753336771
C        13.79487760462401    9.11271691050000    4.61990156091681
H        13.52452404767599    8.09941011641837    4.90331807177682
H        13.60575987114109    9.77601031699157    5.46109148312024
H        14.86269302873434    9.12927340642216    4.41253727509858
C        11.91569994982695    4.91069535150095   -1.51446295821682
H        12.13392903074776    5.08566576573682   -2.56477567638381
H        11.22325756213517    4.07687303444421   -1.44725487770665
H        12.84170571557569    4.64724340378563   -1.00758056045459
H         9.14183738358149    2.40468992891112    1.12126956074176
H         6.90162672877865    6.11411151078751    3.45354443233421
H         6.35495774158952    6.26682633297506    0.37241120772039
H        11.18567210688933    5.95544065431073    0.19712592684797
H        11.25133906968762   10.77564828720862    1.87656532016477
H        11.41251932849990   10.43325661432466    4.47032071232459

