119
CSD_code = HACJAZ | q = 0 | S = 0 | Stoichiometry = C50H63Cl2N3Pd | MND = 4
Pd        7.06846204132273   -0.27518829620383    7.87470979673439
Cl        5.16761483005618    0.98949800672901    7.90923272880320
Cl        8.85578057726503   -1.69713426606019    8.04411939748134
N         8.54420296957682    0.42327360084256    5.34234473602743
N         8.17590508428327    2.14772486301419    6.64331972843342
N         6.28104727279669   -1.32007594230863    9.40688433566329
C         7.95265863975801    0.81659952366686    6.49974429640255
C         8.58254093605298   -0.92276719497703    4.88500410859407
C         9.81328906091160   -1.58335299470681    4.77557015694352
C        11.14054017641967   -0.92743194286638    5.08059756633891
H        10.98488913844724    0.13253804229574    5.29801698112132
C        12.08162839806143   -1.03048000983569    3.87733155062472
H        12.37902692149278   -2.06112566867163    3.70253996303786
H        12.97979429578900   -0.44563494275102    4.06078026511901
H        11.59962293341828   -0.65706943883601    2.97705478385825
C        11.79382477991359   -1.56358933776912    6.30915797586605
H        11.11249583371530   -1.53188457944203    7.15420945388822
H        12.70455326000697   -1.02583779254108    6.56459612343987
H        12.04809985671417   -2.60288527957728    6.11760572355542
C         9.80416818908587   -2.91402140522025    4.37928942107151
H        10.73609561124078   -3.45313267568076    4.31556426211893
C         8.62532078800831   -3.56725969830397    4.08188193543022
H         8.64254145206493   -4.60541063716833    3.78402516769341
C         7.42519508631443   -2.89154345082943    4.16548461818980
H         6.50915143722033   -3.40559517521644    3.91806040234586
C         7.37755178584525   -1.56378410841789    4.57270108562219
C         6.03606621527225   -0.86352474459724    4.62177270343547
H         6.15328776805330    0.15251757531371    5.01759418456722
C         5.44329556884928   -0.74881786115339    3.21513408805251
H         6.11491872361430   -0.19440377422557    2.56174014272817
H         4.49212445937122   -0.22342856240190    3.25710100559924
H         5.27649967544944   -1.73048654521408    2.77830283120724
C         5.08503123998532   -1.60734697447383    5.56531247606833
H         4.81405745287355   -2.58395591225279    5.17051985559454
H         4.17884936035731   -1.02385682111326    5.71368446518074
H         5.57742329131909   -1.74169713972818    6.54294814660312
C         7.58873699341563    3.00894987878573    7.61597465327075
C         8.03376962981690    2.95534482136538    8.94412674425927
C         9.12890775056933    1.98753854545617    9.35160444137993
H         8.92064183451101    1.00012048692918    8.89394411223738
C        10.48035684410711    2.49004442503646    8.82910692756426
H        10.47595233370028    2.60833290885014    7.74851172145868
H        11.26407415294395    1.78253928693752    9.08965371424127
H        10.71819560840934    3.45430585046934    9.27646745819879
C         9.22512521903528    1.76017821338449   10.86059908933508
H         9.62149610313618    2.63715504236097   11.36941915400492
H         9.89768460765867    0.92677127532075   11.05257375766725
H         8.25354094205826    1.51402563278126   11.28343701605509
C         7.47727810819812    3.84679300622345    9.85089918121702
H         7.79846958632388    3.84134322253032   10.87974004568843
C         6.50794039155002    4.74948442193839    9.45519861528584
H         6.08374617718964    5.43151189686350   10.17760519237139
C         6.07420807210771    4.77559135616359    8.14616537033289
H         5.30396552501654    5.47325499823525    7.85741757176712
C         6.60195526703343    3.90954166499823    7.19687162667846
C         6.05290461008738    3.94459251758293    5.78688387789506
H         6.57233451823546    3.20324155850128    5.17277309074843
C         4.56581178379365    3.57822698098472    5.78936649019995
H         4.41380885624562    2.63773924369563    6.31101950937666
H         4.20770927316699    3.48083795909976    4.76641635471127
H         3.97845820146281    4.34463953353881    6.28786478327472
C         6.24411497702821    5.31534561630197    5.13190513030560
H         5.71725100504975    6.08697101477795    5.68716221243006
H         5.84624604518931    5.29324812793091    4.11934232827170
H         7.29548224744920    5.58469405881927    5.07738353001591
C         9.13130318827994    1.51058848941684    4.74835151629079
C         8.91206301477447    2.59086102415931    5.58280368804886
C         9.48624710213914    3.79309285408925    5.02538980531173
C         9.98380788538910    3.39216905148368    3.77037504498872
C         9.73160927312126    1.97271574724740    3.51593945020981
C         9.91630279794347    1.49685382140091    2.28099084310964
H         9.71413418946416    0.46443043638852    2.03481764515520
C        10.30280581522590    2.41538986633450    1.15352172613185
H        10.92650993024947    1.83717664386505    0.46728089772894
C         9.02274612320006    2.77381073042232    0.32194321277515
C         9.42938616837061    3.39037227837383   -1.02095849917543
H         9.93798810379770    4.34236228541015   -0.89724298628153
H         8.54285380109580    3.57018860372316   -1.62506024276253
H        10.08525708767561    2.71886537787065   -1.57098745477402
C         8.23248060358487    1.49331872689530    0.01838655292167
H         8.87441857741004    0.73124497213990   -0.41885821309759
H         7.43658525237467    1.71058910082253   -0.69077072169951
H         7.77481968843124    1.09126232683471    0.91859523281547
C         8.10627671915443    3.74127725237572    1.07140630894398
H         7.82828465554139    3.33904716114865    2.04248685359817
H         7.19604682347232    3.90189125316010    0.49695559326077
H         8.58360124501428    4.70462375252773    1.22689579264659
C        11.11010814205269    3.67079986636717    1.58685031100435
H        10.98919551843500    4.43366837469849    0.81324066024921
C        12.64911481571956    3.40593457172900    1.65923799854147
C        12.98116525748326    2.28669308020378    2.64344162338136
H        12.59665624789668    2.51739810219247    3.63386460294979
H        14.05994420741702    2.16352210920093    2.71501053905883
H        12.55224269537701    1.34450829343593    2.31799328395138
C        13.18848117129059    3.04017695684444    0.27049566060276
H        12.83724087338999    2.06818162831575   -0.06530927726769
H        14.27499318707173    2.99820041322167    0.30017831602722
H        12.89794399638153    3.78570997896161   -0.46659888940968
C        13.37792983607984    4.67825654940783    2.10627909677392
H        13.14840753793893    5.51085767813635    1.44486634087476
H        14.45301357067631    4.51392793769799    2.07898772707296
H        13.10660235898879    4.95114994194737    3.12221368984231
C        10.59200799282894    4.24557901826999    2.88087571145280
C        10.67304777791640    5.58311553380191    3.27107828935795
H        11.08782548060672    6.32023097583329    2.59963786234726
C        10.22411365571895    5.98874967205893    4.51996237799607
H        10.32521783307048    7.02817162054751    4.79712349894828
C         9.63972602985205    5.10764544758244    5.42491728646796
H         9.31152445778805    5.44459767500876    6.39715745550210
C         6.05771879014812   -2.63051237943284    9.39680285659154
H         6.20357804768850   -3.14492468509072    8.45211424484528
C         5.67543762791414   -3.32591016719930   10.53111518754673
H         5.50064908670765   -4.38884273612593   10.47686205101536
C         5.53071741340181   -2.63576728460064   11.72392748330174
H         5.23983504562721   -3.14990773044353   12.62767933743713
C         5.76929688651684   -1.27030659682338   11.73007655974799
H         5.67013825069459   -0.69130623034373   12.63483705327367
C         6.13856831289772   -0.65131587872335   10.54865871623485
H         6.30720807322867    0.42269452184430   10.50329013451982

