58
CSD_code = HACKOM | q = 0 | S = 0 | Stoichiometry = C23H34Ti | MND = 12
Ti       -1.95556806073320    2.16835845841774    9.06293515389158
C         0.05171581381582    2.12017412901801    9.87247026255212
C        -0.90190160023565    2.78967593311766   10.74007727268163
C        -1.08013429011909    4.12405949800899   10.21129054238665
C        -0.34966742184701    4.22878065692456    9.02900648822532
C         0.29169870581082    2.97425723561322    8.77808999591068
C        -2.03150141198138    2.07279233363983   11.23989438076197
C        -1.75118281207149    5.22497780530812   10.97494288535158
H        -1.11527796866894    5.52182900309508   11.81366199999093
H        -2.70587783984736    4.90134924091656   11.39059300003663
H        -1.91946026277795    6.10398836845700   10.35744396825392
C        -0.05929175340523    5.46833253702220    8.23719572768473
H        -0.64714283270822    6.31424275000385    8.58671226461588
H        -0.25002272098846    5.32408029078590    7.17357063176505
H         0.99657458624805    5.72706385193573    8.34731442528671
C         1.27679891579678    2.75175632442863    7.66784003734871
H         2.26812640240881    3.10621722223589    7.96371592603433
H         0.98241923838599    3.29939769055734    6.77296770954900
H         1.35689144490472    1.69489087926167    7.41459313403466
C        -3.33332406513041    1.54005974536099    7.36756575431720
C        -4.07678780179073    1.46017404619514    8.57735158368061
C        -4.19211610566358    2.77421752162707    9.10760449278859
C        -3.52917794506140    3.66780602285167    8.22846681792282
C        -2.96370819595682    2.90066528487801    7.17568788813447
C        -3.20461479204767    0.49076530497362    6.30172165231659
H        -3.95498094600367    0.67487536153933    5.52732314611942
H        -3.36741878633216   -0.51074476343895    6.69355559594776
H        -2.22312707618212    0.52083318213168    5.82824579117242
C        -4.77511869276644    0.26021564167440    9.14706850206631
H        -5.85015843169550    0.44531287304032    9.19859264637755
H        -4.41769295510168    0.04373581757339   10.15665997518536
H        -4.61381640229320   -0.61961769722303    8.52790940974166
C        -5.10551760900972    3.14673504109953   10.23832589349359
H        -4.80502498302848    4.07986537954895   10.71269342143834
H        -5.13381980604517    2.36208448147902   10.99342900361718
H        -6.12180421717145    3.28247159392251    9.85718526538291
C        -3.68895928812542    5.15885938960313    8.21717313138634
H        -4.48568109250805    5.42471990247588    7.51600571039868
H        -2.78283273372322    5.66645521519716    7.89460035434967
H        -3.97308286155859    5.53623364334729    9.19624304302114
C        -2.30659658941315    3.42127294437130    5.93021540087605
H        -1.36772900823533    2.89807325268623    5.72966060261462
H        -2.10569301695813    4.48797957350365    6.00789187157655
H        -2.96238256825821    3.26602392282567    5.06919676741524
C         0.69364534310669    0.78123689458089   10.11609984154753
C        -0.35566088502533   -0.30802274556224    9.84417436801485
C        -1.31714491337202    0.18917027597803    8.76909871906113
C         1.27976134072816    0.69620513424479   11.52683254602254
H         2.04829185342488    1.45476790105615   11.66390086863795
H         1.72559760787513   -0.28301685249361   11.69223719798902
H         0.50518644861393    0.85683423951791   12.27352078252529
H        -2.78380419474491    2.65687761887276   11.76896162396044
H        -1.87346559785319    1.09210801373095   11.68321363599417
H         1.51755930671314    0.66045844664157    9.40146004586419
H         0.14018948209942   -1.24079557910793    9.53684194306054
H        -0.90590383852271   -0.53386819834126   10.76261433276844
H        -0.77012146054659    0.23552330350390    7.81012325274390
H        -2.11596065442062   -0.55387534261394    8.66313131410609

