52
CSD_code = HACNAA | q = 0 | S = 0 | Stoichiometry = C18H29CoO2Si2 | MND = 9
Co        3.29069116581314   11.44421140572041    3.57063199756436
C         1.87665003084983   12.01919066235963    2.25429637205088
C         1.30704330994460   11.44566573034398    3.42211931601892
C         1.77538607662148   10.13199609942088    3.71373891750502
C         2.84234113455798    9.67862755613725    2.94155688673167
C         3.26797856826147    8.65696708483031    2.22668332705695
O         4.60825186736809    8.69112439008490    1.81743378358407
C         5.17509435749395    7.57785803083769    1.40683685295598
O         4.61245058822990    6.50694655504259    1.36205860091197
C         6.60893930145400    7.79673112949535    0.99546071006018
C         5.22665556103800   11.10172382068454    4.20498898279852
C         4.52108275015746   11.60242930088957    5.33852961456053
C         4.04382221821192   12.87960398223744    5.02336523235671
C         4.42852311652802   13.16932893960685    3.68629947281629
C         5.21265682840796   12.09264463574044    3.19726886885208
Si        0.04567249203380   12.32556313004995    4.53445658897845
C         0.21013705463907   14.21674515215212    4.34600172163588
C        -1.67123756601374   11.74640539479908    3.93368369220197
C         0.31497222743840   11.82052119624487    6.35613066538231
Si        2.11169165584308    7.24309165535619    1.63026493094526
C         0.36570927586330    8.00030749678495    1.85264599299110
C         2.13821191446086    5.69931302317996    2.75066380153584
C         2.26831723115360    6.92557655609909   -0.24754590349890
H         1.97850946630221   11.41751729569163    1.35522425407166
H         1.65003587605209   13.05909439702256    2.04858557542985
H         1.41674893001786    9.58598935193559    4.57932891099035
H         6.67877967968255    7.71486655737539   -0.08754366325984
H         7.23493352356547    7.02366199763080    1.43323430517170
H         6.94225183029584    8.78126425899593    1.30791834632135
H         5.80715849939147   10.19242530683340    4.18779466887422
H         4.46655682250329   11.11887131349478    6.30106627438907
H         3.54881911254665   13.56132146959624    5.69570724914550
H         4.30106657693086   14.12305822377127    3.19652429420446
H         5.78240885160449   12.08336731277956    2.28246271339655
H        -0.42051540321268   14.73275526158361    5.06329196159039
H         1.23123027750111   14.54852678917467    4.50537044095168
H        -0.09138081677735   14.54259805099698    3.35536445530747
H        -1.84981626291574   12.03940906669592    2.90366607917912
H        -2.45992862409067   12.17890576575817    4.54087129202578
H        -1.76786866350471   10.66626183878654    3.98645234970293
H         0.03246798384144   10.78580081047002    6.52580453739173
H        -0.28129084589313   12.43273021383843    7.02570861296049
H         1.35522582889526   11.92880309658844    6.64858166775318
H         0.27649326777998    8.97727090886353    1.38924619732850
H         0.10633540578408    8.11388424417549    2.89918289317700
H        -0.38331561034471    7.35570927051837    1.40385628741872
H         3.02180148871250    5.09452644793102    2.58746910272326
H         1.26593135185148    5.08369778953508    2.55421582464503
H         2.11158193565234    5.98123420303708    3.79938966545707
H         3.02559934755847    6.18092880508131   -0.46367781544001
H         1.32533872243986    6.57280629622873   -0.65338546004414
H         2.53430028747639    7.83484072751681   -0.78018144684213

