69
CSD_code = HACPUZ | q = 0 | S = 0 | Stoichiometry = C27H37AuClN3 | MND = 2
Au       -0.90255456872052    5.63954685865889    3.01176996962693
Cl       -1.84202876271224    3.59810912057363    3.00578908895802
C        -2.56732747803297    9.40906169098683    1.41099079070992
H        -1.48177442416977    9.36965500711304    1.26386013822841
C         2.14990396178311    6.72162573311543    2.20191732734897
N         1.54218319931384    8.96906549760362    2.71360824553641
N         1.21666796254304    7.69891124497506    2.63349714111558
C        -0.05618208494010    7.42786124998850    3.00159694872812
N         0.46244225747265    9.56627492298612    3.14623999849679
C        -1.87818932652861    9.06987456132073    3.82040570636023
C        -2.14913215985129    9.03012714468631    5.19029832537699
C        -3.08743602029107   10.65844499840507    0.69750034894914
H        -2.75501799321716   11.56265920570226    1.20512219451919
H        -4.17299268706065   10.66589205216373    0.66076496164139
H        -2.71795863326093   10.68108694430026   -0.32539077115155
C         1.20596188952538    6.95821022536625   -0.14229133171655
H         0.58668577495062    7.70914231146137    0.35879435970911
C        -2.86067833801573    9.42866499710599    2.89331208440033
C         3.90494948573445    4.77621369045422    1.38470751725941
H         4.59143544709006    4.00692530985672    1.06449180529274
C         2.15447028255602    6.34472707576111    0.85914717596797
C         3.87451440420890    5.15980205956012    2.71183059663687
H         4.53383261986581    4.68127641899712    3.41829655926976
C        -4.12588747946284    9.75054472941342    3.36232685890741
H        -4.90519605443898   10.01776290542669    2.66632945248123
C         0.43505641182898   10.98114164507353    3.36828273906629
H         1.39849767222266   11.39036652686029    3.07203618882819
H         0.25127731060453   11.18879607560488    4.42341365993602
H        -0.36230246135476   11.43437376898038    2.77824092052664
C        -1.42315502030636    7.18584080206172    6.68413685602162
H        -0.65313951642497    6.84116014456089    7.37057465531571
H        -1.48126159849643    6.48918122853795    5.84907942274023
H        -2.37873483483491    7.18014386328456    7.20204371848560
C        -4.40494227716580    9.72020267617670    4.71553536515694
H        -5.39584848681920    9.96878757373509    5.06540890944570
C         3.05408064162905    5.36239966273984    0.46795842352975
H         3.08207669859893    5.04506549554990   -0.56241914149281
C        -1.09310387664429    8.59197659314263    6.17789692675615
H        -0.12593372584169    8.54123781557924    5.66487443394245
C         1.97937343333524    7.66232673675345   -1.25950632404610
H         1.28640161829427    8.14919013922143   -1.94202278643822
H         2.57503041229076    6.95260335031874   -1.82693485408240
H         2.64547365472785    8.41601031907880   -0.84397424741686
C        -0.54630412249326    8.68402156307993    3.34043811700033
C        -3.42589586409264    9.36057412554221    5.62158112176562
H        -3.66267776239172    9.32690303716591    6.67338154847003
C        -3.16595476975173    8.14079805984335    0.79694764952136
H        -2.94026778439782    8.09281256397871   -0.26603023113012
H        -4.24536476103018    8.12953248235323    0.92468120565814
H        -2.75473398408053    7.25579522081503    1.28078677073301
C         2.27604537351741    5.39504010230163    5.39904931645538
H         1.28724077016817    5.17337300617984    4.99952075708110
H         2.17353582675457    5.67739194060157    6.44441765541065
H         2.87684640254360    4.49130315923347    5.34079760728695
C         2.99845348478700    6.14422260683323    3.14713412500881
C         2.93095240557710    6.52893288996165    4.60563122620186
H         2.30676649445492    7.42171676013427    4.71425433919964
C         4.31282946760285    6.86810998405591    5.16673477783554
H         4.79321105295838    7.63137640082800    4.55819027080136
H         4.95349403037123    5.99134344982062    5.19157369887480
H         4.21666867167844    7.24439738843206    6.18280920899195
C         0.26844513954250    5.88822577759400   -0.70566643515592
H        -0.45847520357840    6.34299290347785   -1.37469725803317
H        -0.26764611200354    5.39308902418000    0.10243941257039
H         0.82374382164040    5.13658153990699   -1.25974267956896
C        -0.95381688759875    9.57432784484454    7.34270766975010
H        -0.09935304727264    9.30122155832145    7.95795015065057
H        -1.83853415251436    9.56255162206052    7.97279923236247
H        -0.80704582037094   10.59009461520403    6.97857038333221

