37
CSD_code = HACPOQ | q = 0 | S = 0 | Stoichiometry = C16H13N2O5Re | MND = 6
Re        6.37298816971417    3.87923597976388    5.08811538651650
O         4.00985438147577    2.17973556075323    4.03314074007129
O         4.44382738684897    6.09575933375620    6.06642158108444
O         6.53366476216749    2.44896641371523    7.84721698436617
O         7.68686120110222    4.72310207360042    2.38100261472100
O         8.59049959289022    6.68681346260929    3.00096797348451
N         8.16146200461740    4.97355327700804    5.43405365632301
N         7.89073313014292    2.63760849002091    4.27475450487021
C         8.22097686955791    6.18495627146035    5.98622913445382
C         9.38800071726594    6.91227345834092    6.09649036323927
C        10.56654457720581    6.35863693344141    5.61735050006270
C        10.51936173681318    5.10506845763948    5.04501590592151
C         9.29943908335527    4.43384119849968    4.95047191463580
C         9.14768531312918    3.13017517738170    4.30137590144991
C        10.21186746188632    2.43688937238036    3.72141682899834
C         9.98340710775264    1.22962377493730    3.09499713700143
C         8.68565922911818    0.73476874310303    3.06653963381349
C         7.68311673304063    1.46859039876565    3.66645060829888
C         4.86568286786508    2.81385227601455    4.46501392917336
C         5.13798376816102    5.24867251853899    5.72289723660442
C         6.47032930554766    2.97240398340492    6.82992652786604
C         6.44690389258554    4.95957328458092    3.09610494303282
C         8.63134793959315    5.64306274585546    2.38853925735072
C         9.79730489368280    5.22950222953621    1.51235188184215
H         7.28731257353237    6.59260900133877    6.35160597276904
H         9.37050812763649    7.89507464387067    6.53756947141386
H        11.49916258694773    6.89756545815701    5.68018123768328
H        11.42034498397799    4.65663585095166    4.65948835034300
H        11.20927517627065    2.84295732750481    3.75492425404600
H        10.79543693198948    0.68650329053643    2.63658921673480
H         8.45510234775209   -0.20221993312603    2.58636826082041
H         6.66419242537826    1.10327725128665    3.66358974487943
H         5.67881555318933    4.62884574674813    2.38634634389425
H         6.34155170396274    6.04837107950444    3.20468188786228
H         9.78436304247435    4.15720540580039    1.33857808178580
H        10.73183805482338    5.53630842493845    1.97445239371780
H         9.70439436655536    5.74500103737871    0.55837963885787

