32
CSD_code = HACQAD | q = 0 | S = 0 | Stoichiometry = C14H11N2O4Re | MND = 6
Re        5.29486505219010    0.75908245262794    5.85879896885117
O         8.24648193796894    0.78749117346073    4.93437321431706
O         4.45993122078406    2.72640725641795    3.62239964670449
O         4.82084526218047   -0.98926039499015    4.64458275324557
O         5.62830410374676    2.89997767784368    8.07294736809742
N         5.53542773830337   -0.91792389286908    7.14614814942962
N         3.29752605072496    0.21948150289505    6.36509846201539
C         6.68725563915840   -1.40326367677354    7.59696098509932
C         6.83053561009679   -2.69023609028804    8.08078720956464
C         5.71802803160716   -3.51991223454903    8.09080199024032
C         4.51226759679226   -3.01683670732285    7.64488725500743
C         4.44317032577811   -1.70440075439604    7.17403258421169
C         3.19620552269004   -1.07226906268478    6.73109094371778
C         1.96402300591169   -1.72839848919348    6.72497432490737
C         0.82846096144709   -1.04493670905380    6.33870729392932
C         0.94260192065629    0.29354111966405    5.99011403369343
C         2.19613093768290    0.87585806491340    6.01677462461686
C         7.15610966222655    0.83806501668866    5.28694566144806
C         4.80761244422933    2.04010281174009    4.47322069157723
C         5.09864494115747   -1.27694324767689    3.33743498405688
C         5.51789410282986    2.12182477011469    7.23357965307268
H         7.53433799196549   -0.72929288785499    7.56711187793848
H         7.79104033020834   -3.03554944998808    8.42723204303167
H         5.78943204082447   -4.53771626981906    8.44315876835944
H         3.63577499901015   -3.64353994245063    7.65076119753135
H         1.89485583511184   -2.76708096670363    7.00337252438678
H        -0.12819129556332   -1.54431963826994    6.31253385217429
H         0.08279591030493    0.87033093330317    5.69026232209688
H         2.32561862258108    1.91591238524332    5.74417264626112
H         4.67520536840039   -2.26708191377235    3.09701258633944
H         6.18267152852702   -1.31984697092149    3.13210285090523
H         4.65573660046402   -0.54686586533590    2.63721853317329

