69
CSD_code = HACRIP | q = 0 | S = 0 | Stoichiometry = C22H40Cl2N4Ni | MND = 4
Ni       -0.00003362736458   11.73863626701782    0.00010771931780
Cl        0.09559872957179   13.30213665464930    1.43910037338688
N         1.82634513243129   10.18977315308569    1.65711868798904
N         2.88231759857703   11.30851734902868    0.14292767621068
C         1.65884856803334   11.04709467330073    0.63513168009166
C         0.68636712330411    9.73507668166909    2.43516942194601
H        -0.18533509643968   10.05506358881929    1.83727740119210
C         0.62931551085174    8.21720097689888    2.56697315116981
H        -0.36637088875132    7.92455060335418    2.89106237615060
H         1.34385311365562    7.84648692262496    3.29558605233482
H         0.82436251653640    7.75225069233122    1.60329433804408
C         0.61669223722111   10.46037429688265    3.77684762310795
H        -0.29263218017375   10.17484540336919    4.29925200734650
H         0.59593704377376   11.53458201055990    3.60479573213275
H         1.46801804884163   10.22086936807119    4.40893097076921
C         3.16571146373616    9.90924431869808    1.81744461707820
C         3.73464138111317    9.00119389037475    2.85096659653309
H         4.79880764722119    9.19403069779552    2.95890245164518
H         3.60318917879870    7.95617690243815    2.56885014090068
H         3.26491435829107    9.16094520955968    3.81786078406423
C         3.83155225967893   10.60503319216079    0.85192308061259
C         5.29666998726887   10.63530983183662    0.58921995721179
H         5.74943202282838   11.53962933465370    0.99684011035245
H         5.50678170075338   10.59205476374645   -0.47613983336361
H         5.76829388074412    9.77627940369293    1.05932345896979
C         3.04755804585751   12.19269872763823   -0.99843065893585
H         2.06125241722496   12.67840014692846   -1.10049748414044
C         4.08125316960783   13.28636847454702   -0.75239015136556
H         3.93491398887412   13.72261274239085    0.23311491314994
H         3.95364510202480   14.07081758166835   -1.49434773261425
H         5.09655379264593   12.90966310330739   -0.83096240565846
C         3.30591295198510   11.39589799325038   -2.27487419466005
H         2.49931078138012   10.68067747506278   -2.42260330679077
H         4.24952512282012   10.85817100703111   -2.22941475347262
H         3.33331480040189   12.07021457429694   -3.12688398576264
Cl       -0.09559479625931   10.17526605196819   -1.43900310958292
N        -1.82633331063891   13.28749073663214   -1.65705829238581
N        -2.88234293664103   12.16854738448753   -0.14303918373388
C        -1.65886142931206   12.43005996743601   -0.63515796413102
C        -0.68633762382819   13.74234676783477   -2.43499373477035
H         0.18536278800030   13.42237674631039   -1.83709559960330
C        -0.62937064015239   15.26023789331933   -2.56666225243687
H         0.36631252405668   15.55297195982012   -2.89068894475790
H        -1.34390245897132   15.63097238371053   -3.29526867880607
H        -0.82447820942909   15.72509463591882   -1.60295100502491
C        -0.61655241455373   13.01716752304383   -3.77672922821171
H         0.29278203361232   13.30279339702159   -4.29906244558303
H        -0.59574155752472   11.94294777453738   -3.60475636113146
H        -1.46786579563922   13.25667408466810   -4.40883079138412
C        -3.16570519641967   13.56799095610505   -1.81741517840995
C        -3.73462802614176   14.47612644463114   -2.85086654937284
H        -4.79878156763710   14.28325471255785   -2.95886313347622
H        -3.60323337953052   15.52112270851782   -2.56864553504394
H        -3.26485480928524   14.31648660148940   -3.81775608307073
C        -3.83156658264998   12.87208232182882   -0.85199500158172
C        -5.29668862511276   12.84174989715134   -0.58933120735663
H        -5.74941365088442   11.93745224595671   -0.99703813460279
H        -5.50683068943368   12.88491030282938    0.47602710270319
H        -5.76832075235038   13.70080753637550   -1.05937598786918
C        -3.04758820007619   11.28426709894640    0.99823797215232
H        -2.06127200347073   10.79857616377525    1.10027071768585
C        -4.08125562329153   10.19060084847813    0.75207666556476
H        -3.93489338555792    9.75445862458115   -0.23347042311175
H        -3.95363838335616    9.40608101773533    1.49395644743398
H        -5.09656524959984   10.56727709183123    0.83067288110024
C        -3.30597828381911   12.08094667636820    2.27475097693016
H        -2.49939600986583   12.79617374557436    2.42256112366587
H        -4.24960225924987   12.61865513896058    2.22932221193848
H        -3.33338137831054   11.40655454685707    3.12670191132125

