115
CSD_code = HACSOU | q = 0 | S = 0 | Stoichiometry = C51H58O3Si2Ti | MND = 6
Ti        5.62542430607112    4.93655293291946    6.25106277701007
Si        3.17421537049465    4.75672414652369   10.22404153049672
Si        8.37958880677583    2.93000970079508    3.67315934298655
O         4.61901086016262    4.13515723432675    5.06869553692133
O         4.86536207659908    4.18180043006702    7.63935753185183
O         7.23551750216360    4.29664700276270    6.03668938112525
C         3.77648106342631    4.70536117862833    4.20429773553336
C         3.86958035402074    6.10497694896388    4.05306394753318
C         3.09037999311084    6.77140325722852    3.12525706051769
C         2.18779010985239    6.06779114185674    2.33729423556802
C         2.06871918273486    4.69469210567131    2.54271788095874
C         2.82838796499520    3.98339183726859    3.46052002518708
C         4.81752781704244    6.71669477040059    5.01110882582426
C         4.51566903697677    6.89623987395926    6.39026417571948
C         5.73130249894906    7.05835153460271    7.11406548390969
C         6.79607449729899    7.08948191527186    6.15220327812369
C         8.16822432803839    7.37012590848530    6.27029980437832
C         8.93038317312656    7.45749900747303    5.13144812128456
C         8.36830183353235    7.27081827328577    3.85724390393039
C         7.03719879222164    6.97649813809942    3.70187685836155
C         6.22633254589517    6.87650521852848    4.84437109611461
C         5.58875385917153    4.08664548927538    8.75148467427133
C         5.05198305445481    4.55982754941740    9.98316244733233
C         5.88614519913090    4.63278832299407   11.07013043727560
C         7.23563215328264    4.23159143951654   11.01438494746406
C         8.11232962121399    4.38846013093042   12.10684098625189
C         9.39290743689703    3.91384088314053   12.05009352313319
C         9.84988216635750    3.25964940384498   10.89571962375714
C         9.02352694712602    3.08753576365745    9.82037731005381
C         7.69785485995127    3.57104653163907    9.84544546913789
C         6.83102004469199    3.45062881748285    8.72858847472144
C         7.37392960122246    2.99813862839312    6.31918245895957
C         7.81251230213937    2.12017654379654    5.29019471539580
C         7.93350356835088    0.78618168101452    5.56790513371852
C         7.63796962987536    0.25644265670757    6.84093485307396
C         7.73254640797212   -1.12472936715816    7.10528323198253
C         7.45530742261774   -1.62325905316526    8.34722251073246
C         7.05893831998973   -0.75477411100197    9.37408036221169
C         6.96281574100473    0.59105703679963    9.15114737244078
C         7.26166020338122    1.14112236006733    7.88558201178540
C         7.16942941541209    2.53588201989902    7.61395179125412
C         1.31391494863626    6.73865938322489    1.28699461806661
C         1.57935462596200    8.24269031019771    1.17762836221652
C         1.59639857636313    6.10552942127664   -0.08267391206862
C        -0.16317670707776    6.54060495681064    1.65594002976416
C         2.64565945040382    2.49381670483644    3.72382258979511
C         1.52470981351176    1.87999342146626    2.87945456167870
C         2.29228640015284    2.30236328325339    5.20764721200235
C         3.95056761771381    1.74788368857324    3.41210416324847
C         3.12048004740636    7.04545846439590    6.92071221410442
C         5.87436421728078    7.48316430098576    8.54894429651889
C         2.75540324442903    3.56933891403663   11.66607437171355
C         2.76608647716105    6.52738943262424   10.84190036940269
C         2.05158126973898    4.25547271593640    8.76235742792888
C         9.07402450593743    1.56180861908975    2.53295243704304
C         9.80765881345169    4.12263906896263    4.10731255401646
C         6.97122909586033    3.80069165167081    2.73048244845761
H         3.20216829277260    7.84027559442826    3.04239596740714
H         1.34413705946205    4.15735948060251    1.95516348666773
H         8.60815722470810    7.54603259656974    7.24394989769564
H         9.98223605987010    7.69267549524291    5.20769040195684
H         9.00149381537722    7.37435443179335    2.98839761934792
H         6.59769947394571    6.86965699704250    2.71907943968854
H         5.50158475618857    4.99687401422382   12.01243237311779
H         7.75000467315080    4.89375088194366   12.99124591991093
H        10.06001876578711    4.03809506209352   12.89054922431514
H        10.86585246676172    2.89424963346289   10.86157813826811
H         9.37902565406738    2.59497940497707    8.92717682974239
H         8.27058509801655    0.10901847807774    4.79692513010895
H         8.02728569316690   -1.78305407847758    6.30016279129398
H         7.53120531497822   -2.68276424619599    8.54352726221147
H         6.82488388152596   -1.15786894788647   10.34878459808347
H         6.64370420465107    1.24609919514111    9.94787572340121
H         2.84549567144432    8.10391465218399    6.92658911807343
H         3.03789624543565    6.66608321211814    7.93590846508854
H         2.41148326411752    6.51678130433746    6.28117161688249
H         5.92183907390757    8.57433325999934    8.61421520121649
H         6.79137270649289    7.08079189374480    8.98313628789191
H         5.03407972205198    7.14237758974799    9.15115642297894
H         1.68907433529477    3.57109241889985   11.87081952248258
H         3.26253413687188    3.85437431632172   12.58211845474036
H         3.04521718355487    2.54748396122394   11.43849968890632
H         1.77922362601271    6.53422046777209   11.29449396265166
H         2.76543933228232    7.28343472926948   10.06260345141973
H         3.47201958287618    6.84637429389554   11.60323979501179
H         1.67984496072398    3.24514666249137    8.90767451632914
H         2.58015509738746    4.26954704987079    7.81339868569597
H         1.18910494133975    4.91130075631804    8.68098533668770
H         9.42717891339714    1.99602910522111    1.60402616146836
H         8.32280199124153    0.82102207197838    2.27955075080852
H         9.91187027721726    1.04438445796969    2.98781856413542
H        10.65612678741769    3.58478979311499    4.52222417415304
H         9.48269373915238    4.85309087086772    4.84236234064619
H        10.15652704811792    4.66311845298266    3.23242314942316
H         6.31123180236975    4.31707385359894    3.42462318877458
H         6.37605548585538    3.09479604347785    2.15897342903348
H         7.36837353570563    4.53308385914751    2.03434068475865
H         0.94410512020321    8.66777109500809    0.40300165004733
H         2.61457625904111    8.43759082067455    0.90841886383668
H         1.35247208513967    8.74943969443665    2.11251721879287
H         1.36455186801690    5.04440368958200   -0.08488573548399
H         2.64622138391713    6.22536424036737   -0.34104079858223
H         0.99406211689234    6.58707689798355   -0.85028402622225
H        -0.80168884582311    7.03567485693161    0.92722078082633
H        -0.36488760957978    6.96525983858978    2.63706266396851
H        -0.42796911333882    5.48739229547319    1.67986827003957
H         0.57006051464560    2.35866254658860    3.08591295945268
H         1.42991657015779    0.82360732975321    3.12226293508956
H         1.74380205488736    1.96040509983661    1.81715270901217
H         1.38350422398094    2.84989734426271    5.45312546895640
H         3.10253540451927    2.65783256985225    5.84660607016382
H         2.12881891268877    1.24735556917004    5.41864176824226
H         3.82250052627016    0.68269475194094    3.59496670228971
H         4.76138241312864    2.10950693028903    4.04280342888755
H         4.22309175588709    1.88900573798776    2.36795668603942

