77
CSD_code = HACVIQ | q = 1 | S = 0 | Stoichiometry = C35H38NP2Ru(1+) | MND = 8
Ru        7.30635398439923    3.87787307967224   10.43611236949381
P         8.32540587853950    5.89367092849376   10.93232108016665
P         5.71260028074729    5.22803995047865   11.47205372816428
N         8.01670819094704    2.79399421563075   12.27467374588573
C         6.06798038863547    2.74269008871790    8.93641890745298
C         6.63152784956839    3.89443893781342    8.30178888408655
C         8.04010090653810    3.73421890374719    8.30291032647987
C         8.35498469533794    2.53386935549097    8.97973080720185
C         7.12108411119600    1.90594897502038    9.35799409779127
C         6.95531341598859    0.56243137805120    9.99429506368693
C         7.72147285494848    0.41687324497005   11.31507359243300
C         7.36590983901180    1.46511587283391   12.37502816102636
C         7.71372551070476    3.50606660361978   13.52246764160692
C         9.47761772896044    2.63430686517173   12.24193209364742
C         6.91103779475287    6.58766924122450   11.93221536582395
C         9.85900653277369    6.30975069049714   11.81995320284519
C         9.93169152620247    7.26169314076831   12.82954888861592
C        11.15083654302521    7.53871275384274   13.42434409328287
C        12.29659781327683    6.87637538690775   13.01480088636306
C        12.23126075913922    5.93486734162638   11.99896028105511
C        11.01616904456562    5.65109118226409   11.40513203693571
C         8.39850528201349    7.03698550913512    9.51716764705847
C         7.21025299600498    7.29291634537008    8.83587065434303
C         7.20502534842441    8.12018354939398    7.73038592159758
C         8.38909810373288    8.68946510673610    7.28632674903112
C         9.57395752617454    8.42915478155906    7.95358487337252
C         9.58521318852945    7.60373295163934    9.06521548275881
C         4.71957706090803    4.87560419549945   12.96808942804483
C         3.97668661331377    3.69797291986655   12.92759901959113
C         3.13305259424507    3.36713142729993   13.97014770602327
C         3.02616598400467    4.21482729119559   15.06198025383119
C         3.75943429422220    5.38915576554543   15.10445334342102
C         4.60457930561511    5.72537339753458   14.06094258932606
C         4.37425127463893    6.09594433801483   10.57826931091792
C         3.72816366809377    5.48243112009605    9.51223324721368
C         2.67690457272954    6.11743629054113    8.87453944193979
C         2.26015827358482    7.36621251970282    9.30277411112012
C         2.88586069812401    7.97193952806822   10.38149081186178
C         3.93261810365995    7.33931817543783   11.02448523726614
H         5.02139625648506    2.46940764461124    8.95315568263214
H         6.08994995575730    4.63223177774090    7.72641735538371
H         8.74533133805088    4.38560547004225    7.80368390452126
H         9.32792786650692    2.06115878935199    8.99038873388064
H         9.04661384521835    7.79630930958068   13.14228517592406
H        11.20708215345227    8.27903355273492   14.20782064512996
H        13.24281458917698    7.09781280870185   13.48338563757851
H        13.12540318677495    5.42644199237198   11.67158619007120
H        10.94699228009039    4.92633281959532   10.60223405222096
H         6.28914001820898    6.83751827885396    9.18059009445765
H         6.27864555162551    8.31957760348153    7.21259088128694
H         8.38722716287039    9.33283990568362    6.42006957815814
H        10.49693572485684    8.86996757169903    7.60866564156739
H        10.51437843487098    7.40915736209468    9.58066136423534
H         4.07012999653950    3.05217188853580   12.06192047276419
H         2.55707867634619    2.45493591422328   13.93376434094214
H         2.36826828881208    3.96125869047470   15.87856228244014
H         3.67029287695458    6.04999660800683   15.95335089175337
H         5.16633750860116    6.64720054420437   14.10372467527239
H         4.05306117248580    4.50769365940683    9.18275553771943
H         2.18270329427408    5.63579090005743    8.04423322706008
H         1.44396603469875    7.86469739947739    8.80318212839904
H         2.55222336399436    8.93878748779656   10.72687942285381
H         4.39820062373856    7.80952906660562   11.87886138874437
H         5.89154623373343    0.38214183965402   10.17274540928972
H         7.31081803491615   -0.20828507115329    9.30315110697206
H         7.46990381855668   -0.55837264361183   11.73668909952309
H         8.79356619523359    0.40980065114493   11.12204432918884
H         7.63703267241909    1.03901635445519   13.35175105979660
H         6.28257578756847    1.62946409262483   12.37134596563005
H         7.14044270258697    6.54518665922609   13.00113358789629
H         6.61906369552167    7.60076388387596   11.64615604857952
H         8.12774195010820    2.97009572268917   14.38551208204137
H         8.16151776762119    4.50159313868432   13.49022661120666
H         6.63635981693270    3.59654410303341   13.65918192747802
H         9.80724070971084    1.96527871988253   13.04503197948335
H         9.81370601938972    2.23356323139237   11.28984677667437
H         9.94889385803398    3.60566892330263   12.38740362848799

