64
CSD_code = HACVOW | q = 0 | S = 0 | Stoichiometry = C31H29ClP2Ru | MND = 8
Ru       -0.96919306173330    4.57147066214893   12.58143795915472
Cl       -1.72493794657589    2.33445585849578   13.00412893855151
P        -0.99552703022728    4.45688041758888   14.82926075052968
P        -3.01664983444369    5.46543616210112   12.85842305735546
C        -2.76541106037290    4.37641987700544   15.36736868026759
C        -3.49136190095239    5.51880259828644   14.66155352725838
C        -5.75348737470081    5.34001103377828   12.28133058261727
C        -6.87690269971597    4.78292067520025   11.70248413753027
C        -6.76974607978259    3.61806215058512   10.95664497664303
C        -5.53645385220145    3.01338752650542   10.78574863756849
C        -4.40649170160011    3.56880093527073   11.36183108878393
C        -4.51235371409405    4.72807166074025   12.11807010583229
C        -2.87590642252591    8.29792486026849   13.03546016009192
C        -2.91512682717298    9.56185137013564   12.47297287274185
C        -3.25661569244455    9.72535545512759   11.14118672318907
C        -3.55750393558496    8.61583478902515   10.36701841864736
C        -3.52177048247190    7.35351875074069   10.92661724698272
C        -3.19408693362151    7.18103664273552   12.27081811265863
C        -0.78186890830994    1.98699986240038   16.20778524570356
C        -0.03026377172489    0.98402114976419   16.79509296105965
C         1.34773362362639    1.09533736712550   16.87484326523638
C         1.98534594682682    2.21387948267862   16.36071086130170
C         1.24058847781939    3.21780779636126   15.77390775502553
C        -0.14715224602132    3.11519325410495   15.70418384495327
C        -0.29847503121279    5.83871380191865   17.17840031052076
C         0.07482975736365    6.96657040607904   17.88537222441111
C         0.30062756693585    8.16274877382379   17.22132579327880
C         0.15551643370049    8.23123318589468   15.84561402103270
C        -0.21427791387528    7.10233247932632   15.13615582845317
C        -0.44507300248536    5.90312194119962   15.79657197609749
C         1.04170258250180    4.08677259431489   11.75401812701367
C         0.09837389911245    3.93652664551068   10.69851617779374
C        -0.50921253504954    5.18304632653062   10.46250393618113
C         0.06943244792645    6.13196049300034   11.36467511626256
C         1.04285382944918    5.45430750751547   12.13709168749123
H        -2.84377849923774    4.45137436113227   16.45702832773566
H        -3.16305969566612    3.41499594051751   15.02385999939629
H        -4.57655007786136    5.43121328338355   14.76881976032335
H        -3.16609705909332    6.47419564822667   15.08396896635898
H        -5.82906158774193    6.25753173777031   12.85119815618954
H        -7.83981921439183    5.25691553878824   11.82924169943740
H        -7.65189106475415    3.18556710236860   10.50720650101807
H        -5.45338172881166    2.10744021474465   10.20372380022154
H        -3.43777694756831    3.10031951912225   11.24871924818036
H        -2.59229744939854    8.19023350777733   14.07235596914720
H        -2.67348577744338   10.42392918900838   13.07821222072225
H        -3.28358121167585   10.71344253334356   10.70599664392685
H        -3.81790066853410    8.73723558469992    9.32549430359009
H        -3.75488531917753    6.48307651327265   10.32687318311888
H        -1.85306757522770    1.88465722259693   16.12591191883089
H        -0.52338875190514    0.10581660436821   17.18580326553140
H         1.92802412068986    0.30594381529614   17.32990314013723
H         3.06147341538340    2.29696344349794   16.41342280348299
H         1.72271988102096    4.09622229899762   15.36041563977638
H        -0.47073994069622    4.90175212448067   17.69127604455009
H         0.19110372914032    6.91541077829185   18.95829226993438
H         0.59267441155287    9.04092298530656   17.77838111878663
H         0.33268410099498    9.16281337541062   15.32724684993593
H        -0.33171337395909    7.13204381542262   14.05844766614895
H         1.75802165297068    3.33891208265678   12.06835347612773
H        -0.06826051616072    3.02954995394855   10.13123893460662
H        -1.17990024134949    5.42372982584384    9.64822523753980
H        -0.08412701397450    7.20334181030549   11.32316706642361
H         1.73690779651002    5.91543469612148   12.82839068060303

