47
CSD_code = HACXOY | q = 0 | S = 0 | Stoichiometry = C25H16CuN5 | MND = 5
Cu        1.07042494292360    1.30256001644931    3.27883778417039
N         2.33682421979022   -0.23940921109982    2.50439919022434
N        -0.34856061904398   -0.14036951556822    2.56102525507651
N         1.17750201541828    0.39709658392992    5.22343662008265
N        -0.47784160609941    2.31263908758305    4.32912600049068
N         2.47196488007467    3.69355896661056    1.99261631761182
C         1.93965903929610    2.79449543709237    2.48028658069474
C         1.65990922091053   -0.92960563300397    1.56824249252180
C         3.65238185411416   -0.16548728385489    2.39643884200483
C         4.37110744325569   -0.78065072719536    1.37722118891126
C         3.69824342839349   -1.54810413547774    0.44672923838548
C         2.30063327887797   -1.64111048913630    0.52940179862027
C         1.51463790051261   -2.42163902828186   -0.36596781734151
C         0.23497087453586   -0.93872716183336    1.65066472291166
C        -1.65614993657818   -0.13716061816538    2.66046612445970
C        -2.48406662877932   -0.91926372576170    1.85025716015966
C        -1.91109248127008   -1.71983278857484    0.88811770813952
C        -0.51482522683430   -1.74315388303314    0.75870881254855
C         0.16658780292895   -2.49157427829424   -0.24089136951843
C         0.60968191977844    1.21213605252851    6.12900600355468
C         1.92483046854382   -0.59609729787919    5.64080741214560
C         2.17561433524435   -0.84488286919279    6.99324950976636
C         1.63257596031657   -0.00338090343207    7.93774950743083
C         0.82881438585654    1.06736824673285    7.52030588383583
C         0.27039681370025    2.02365633704491    8.41316327498434
C        -0.20643292984977    2.27891483757487    5.64734729071712
C        -1.17849297578466    3.33275966020873    3.86256718287794
C        -1.66086198281603    4.35959903137969    4.66624659367177
C        -1.44545761085021    4.30700828156724    6.02977539500982
C        -0.70167079561170    3.24018583969597    6.55632406692211
C        -0.44201756660618    3.07893953387750    7.94755073564985
H         4.15641319721874    0.39887931800913    3.16894870809592
H         5.44514013062024   -0.68531797891786    1.34382919283201
H         4.22781335354135   -2.07893468850754   -0.33087019327290
H         2.02490482212359   -2.95964797934953   -1.15216862420284
H        -2.07432646176631    0.52026953221564    3.41075147580918
H        -3.55507247980460   -0.87700722686965    1.97435530855860
H        -2.51915202334399   -2.32090778737235    0.22661101577025
H        -0.42211067627985   -3.09443424379282   -0.91758171779098
H         2.35427636318237   -1.22369143576373    4.87155485774495
H         2.79924888126664   -1.67697441812126    7.28121638172319
H         1.82328522497567   -0.14953135716587    8.99174073861932
H         0.45528942965066    1.90356254357065    9.47121253889866
H        -1.37304775216891    3.32222726931641    2.79893798273538
H        -2.22780539920312    5.16504778220517    4.22627250029218
H        -1.84576962875896    5.06208360154966    6.69033632857710
H        -0.82977740560861    3.82570870649507    8.62574399889118

