103
CSD_code = HACYEQ | q = 0 | S = 0 | Stoichiometry = C48H44N4O5SiZn | MND = 5
Zn        9.15315325885112    1.21404184143712    1.45074054634520
Si       12.02844078253264   -1.75698780209780   -1.86945106512139
N         9.30869033177612    1.37922464314952    3.47915819014541
C        10.38245574666239    1.87333468163600    4.14374955476063
C        10.24174988547780    1.62638240846698    5.55437782251362
H        10.95203044928083    1.91797503529944    6.30392571890622
C         9.05907588097253    0.98866957461257    5.71974360867236
H         8.60748804616241    0.64504351154811    6.63130885788261
C         8.49849693615163    0.81324062391123    4.40698330667426
C         7.34958617780865    0.08857836716346    4.13148204702655
H         6.79343416307242   -0.29477120682595    4.97618105005208
C         6.87317569138413   -0.22267113411767    2.86810043937926
C         5.69090577090844   -1.00256192116758    2.62005124160982
H         5.05625548529531   -1.41336850750087    3.38262057926076
C         5.55879739991021   -1.09079637376931    1.27664600320371
H         4.79020307477486   -1.58522636537939    0.71433413831245
C         6.66041776457762   -0.36257033414637    0.70388737890414
N         7.44168673987666    0.14303340029371    1.69075456474203
C         6.84403941723922   -0.16480921350597   -0.66169426136288
C         7.84314765365503    0.62716178393114   -1.22372268308413
C         7.97966052992545    0.87307914490463   -2.63348363928978
H         7.35040124416242    0.45616240134280   -3.39591986805977
C         9.02815296600197    1.71379757842106   -2.78260622940640
H         9.41691935852197    2.12963776403137   -3.69211992942165
C         9.54757717892998    1.96428483966567   -1.46497749661835
N         8.80825873334228    1.29642955547257   -0.54401459368811
C        10.65627285784129    2.76675121744499   -1.20048475698952
C        11.19619254482907    2.98532517321305    0.06534239447162
C        12.42855670725506    3.68334221938852    0.31398253392661
H        13.02361829912535    4.17316703681180   -0.43287090338646
C        12.67788425172993    3.57084780929744    1.63984093942789
H        13.50783070005360    3.96199573235547    2.19689825654486
C        11.58608455107148    2.82487222834965    2.20251362195335
N        10.70141030907873    2.49566219724098    1.22876175674471
C        11.47542311554900    2.50082535709793    3.55387330543394
C        12.67177357335323    2.73460343171981    4.39813422313050
C        12.78389925661056    3.83116057652150    5.25434228099100
C        13.93755263329171    3.98817248089620    6.01760621695510
H        14.05309863085835    4.82618476360966    6.68563846882726
C        14.95422491271278    3.05682607847875    5.91694158603696
H        15.84690750698697    3.18472003703062    6.51086033836556
C        14.85513025654087    1.96356680711167    5.07474974651396
H        15.66710729181073    1.25651238714055    5.02673428470898
C        13.70643767564615    1.79980300946400    4.31105909413561
O        13.47588614325537    0.75581139397628    3.45168252903293
C        14.51477894598537   -0.17094981598493    3.24237833544947
H        14.15223640519086   -0.85982466072415    2.48067656319509
H        14.74542000930347   -0.72947731236517    4.15546646859757
H        15.42157679327516    0.31947850821238    2.87627075837381
O        11.72084842380263    4.67940896333052    5.26078009934027
C        11.76222081844330    5.80314245835783    6.10350035824507
H        10.81729793113674    6.32084987989447    5.94687837466064
H        12.58852236794969    6.47327384359802    5.84367197719802
H        11.84552427670620    5.51576421893925    7.15706196892065
C         5.86741589735069   -0.79804843775378   -1.58201350604669
C         5.92277560808883   -2.17191795611896   -1.83188232292912
C         5.00277989008938   -2.75490389407907   -2.69805299670922
H         5.02858789937707   -3.81131870801158   -2.91040699903450
C         4.03836922490822   -1.96683334844351   -3.29803461623097
H         3.32580918140771   -2.42309386983777   -3.96909707660367
C         3.96480986301173   -0.60771116633422   -3.05542198575148
H         3.19616936398226   -0.02520462407051   -3.53668097513346
C         4.88172276654671   -0.01592354498568   -2.19251373171397
O         4.90069100171264    1.30555148464254   -1.86613938182476
C         3.95140663191575    2.15794467504015   -2.45413805459258
H         4.16570848255466    3.14965551614260   -2.05905203614615
H         2.92896137002793    1.87435370310035   -2.18234394492299
H         4.04532478146551    2.17662619331898   -3.54516083692044
O         6.91441779717258   -2.84622816683758   -1.18561062757211
C         7.02815942759823   -4.23062880989715   -1.39189124210518
H         7.86635032640313   -4.55110650415251   -0.77524225029847
H         7.24071402920853   -4.46816700899795   -2.43980082943849
H         6.12530825152833   -4.76369170999438   -1.07500194088645
C        11.37349707889843    3.35048577450928   -2.35792259833439
C        11.34473621476940    4.71003587891728   -2.62713861007140
H        10.77755382180559    5.36209254790178   -1.97867049027797
C        12.02718077205673    5.22650390962404   -3.71673324925409
H        11.99289476164596    6.28713171758681   -3.91880853281621
C        12.75283272572710    4.38635308291878   -4.54664970634016
H        13.28406888509611    4.79190674491108   -5.39547041028818
C        12.80165090949859    3.02918890573732   -4.28804223872263
H        13.37022098735693    2.36669623227815   -4.92469903607570
C        12.11584542890081    2.50245140518585   -3.19632790702432
C        12.15375542054163    1.12478001817444   -2.87886302842737
C        12.15683856091299   -0.03946563717847   -2.55210779094782
C        13.23489161491836   -1.85748480134960   -0.39232531489483
H        13.16832446098178   -2.81370169527736    0.11958732676675
H        12.99935679411249   -1.07415668937989    0.32114836132460
H        14.26536719110277   -1.72144183597888   -0.70729219403168
C        10.23967555078791   -2.05732664981410   -1.30287407481001
H        10.11044031999610   -3.04764517696439   -0.87474830375601
H         9.53903776730409   -1.95996374049598   -2.12631407235184
H         9.95336460799591   -1.32904224133048   -0.55036448128608
C        12.54279888075485   -3.00776671691296   -3.21896923732975
H        12.50224258993285   -4.02956164278495   -2.85164669290995
H        13.55574791741496   -2.82381348780603   -3.56458306322864
H        11.88639577998360   -2.94309079113557   -4.08153623309110
O        10.83007243034766   -0.37965737164320    1.73970831358471
H        11.52645893185092    0.11824011685367    2.19140846162243
C        10.57682933548789   -1.55804620825844    2.47845118666631
H        11.45788678817112   -2.20773597289298    2.47780994655212
H         9.75107523956230   -2.07009996860965    1.98915569465714
H        10.29245858116815   -1.33414984667898    3.50975722671174

