95
CSD_code = HADDIZ | q = 0 | S = 0 | Stoichiometry = C37H54N3Re | MND = 4
Re        4.25336592491931    5.87295416814447   10.60719501358606
N         3.66415105675310    5.90841333027445    8.92935203624896
N         5.68303862813618    4.86035425492025   10.91301211851896
N         4.14201673403686    7.40263019632574   11.50826004146999
C         2.68422841287675    4.65630076237623   11.60468630339351
C         3.47287858719872    5.97768014247545    7.60941421342775
C         3.16669435128174    4.80050823702718    6.87527633160833
C         2.94983718066094    4.89512684518785    5.51441131887293
C         3.05623711028944    6.10816029203351    4.85508857703718
C         3.37057187934865    7.25446038129494    5.56423881552375
C         3.57239525964249    7.22116060882139    6.93100692281418
C         3.00872982512579    3.49579004460288    7.61663045158751
C         3.55514536515435    2.29769327090980    6.84222792063825
C         1.53164908182297    3.28815716093848    7.96709696141887
C         3.91248640931026    8.48025655091948    7.69123937216692
C         2.75811308157998    9.48163449372637    7.61845767139491
C         5.21093618857995    9.10565294982603    7.17816223005557
C         6.89332333653538    4.32556012511546   11.08969838832401
C         7.40654295656016    4.13523502324620   12.40064746165070
C         8.66921601183823    3.59531908521841   12.55142914851574
C         9.44079674409958    3.26599193412304   11.44997342620138
C         8.94111238328002    3.44114486622295   10.16973205102753
C         7.67125261222308    3.94340708621565    9.96150281160742
C         6.53048337523630    4.45450210723769   13.58644647358610
C         5.79401429869273    3.18341317157402   14.02303085877441
C         7.30252316341605    5.06104634002808   14.75659770034805
C         7.09071248529069    4.13723429381067    8.58228773395065
C         7.29273326095966    5.58728200156270    8.12818175613282
C         7.65376310775331    3.17235728545924    7.54180648111647
C         4.15775966838662    8.64908131517664   11.98650716210400
C         2.94913986085829    9.39121044772454   12.06889531373381
C         2.98393987992344   10.66888987220994   12.59248764442564
C         4.17659208367718   11.24227067580254   13.00007982571862
C         5.36093576787015   10.53159922156840   12.89871138968003
C         5.37863600631722    9.23811631368291   12.41429197224116
C         1.66162883363950    8.72956114664342   11.64522452363925
C         1.06493142403460    7.97885482596575   12.84097846626366
C         0.64170389831502    9.70631305092125   11.06389885859575
C         6.65546705298067    8.45217879632569   12.24930964771446
C         7.16482038618056    8.61932981487313   10.81288416972399
C         7.74460029843019    8.82906351290071   13.24990007406997
H         1.69197383393759    5.07189245900717   11.41061991253368
H         2.84439049601500    4.63509667869922   12.68605721443472
H         2.70462149414762    3.62762205141910   11.23502492925092
H         2.69801186601408    4.00971716430081    4.95094768869588
H         2.89122549465657    6.15978647268547    3.78900408031344
H         3.45016315200679    8.19497389872280    5.03928667076962
H         3.56902104198423    3.57670028358743    8.55778872362843
H         3.59091549147916    1.42538645181918    7.49168508252250
H         4.56186148080114    2.50028211684338    6.48394254687251
H         2.92413984164422    2.05467231041602    5.99063404690579
H         1.40041525943018    2.36337336263310    8.52530653464527
H         0.93060323427837    3.23601001876553    7.06115241083757
H         1.16977102576608    4.11521063927765    8.57446316074580
H         4.06259952136371    8.21705181440247    8.74714450486731
H         1.84106182870423    9.02732121025067    7.98686730941596
H         2.59195234788597    9.81171715732196    6.59545439388908
H         2.98376945860197   10.35286227879812    8.23010520059744
H         6.02451878895839    8.38520500574853    7.22725135836837
H         5.47514582280907    9.96640396850388    7.78896262422924
H         5.10467555092878    9.43610569534236    6.14749175266839
H         9.06767859323487    3.43281268430616   13.54114773430825
H        10.43263691789783    2.86147556564248   11.58908022134851
H         9.55547057009857    3.16707332375920    9.32642179996562
H         5.77581691218982    5.18320887192790   13.26097368269960
H         5.13463356306189    3.39786151462278   14.86157238847820
H         6.50535027501928    2.41754184737717   14.32664230395135
H         5.19647104373255    2.79353775783917   13.20153809708166
H         7.92539405066738    5.88559602423486   14.41821311916498
H         7.93553701428930    4.32047271325558   15.23978194027075
H         6.60431089480099    5.44043982776119   15.49981809826372
H         6.00877507643731    3.96636145554904    8.65740226682677
H         6.78956906697046    6.26700944537591    8.81757535561993
H         6.86928812491710    5.72981728919008    7.13574304197749
H         8.35215664749604    5.83572433657123    8.09970948621938
H         7.60152347842860    2.14549346303002    7.89716254391633
H         8.68754879481782    3.40980779163833    7.30136309249765
H         7.07410777981456    3.25042684716299    6.62413365336230
H         2.07086383246679   11.23725735276618   12.67887565318210
H         4.18381037181709   12.24702681254265   13.39631799290174
H         6.28109536370168   10.99845361384380   13.21361300549473
H         1.90943244275574    7.99105319364230   10.86965264205419
H         0.15268742528327    7.46272586358903   12.54853669692195
H         0.82834523616144    8.67516937629238   13.64362431883871
H         1.77494764430367    7.24564897425459   13.21755192706348
H         1.10061259359638   10.33589865654427   10.30516832418818
H         0.21830250958269   10.34250444836995   11.83778898563905
H        -0.17493134158781    9.15301466973279   10.60436384226466
H         6.41238967483530    7.39058554261506   12.39080124116460
H         6.40895673910475    8.27298200229037   10.10705953292845
H         8.07020921046386    8.03497605353031   10.66323707386563
H         7.38201337114041    9.66551040410319   10.60508983557805
H         7.35732431993829    8.81383549856027   14.26640176869927
H         8.14737930943836    9.81770366215471   13.04194411997898
H         8.56395148859052    8.11610607400118   13.18024442814942

