123
CSD_code = HADHEB | q = 0 | S = 0 | Stoichiometry = C48H68Cl2N3PRu | MND = 5
C         7.56292465936694    1.48994262742095    5.21145049210388
C         5.37080551246494    1.82228200879029    5.44261178946727
C         7.30058843782911    1.55628126082087    6.53585401080265
C         5.25292979164491    1.93479054425950    7.90046761013091
H         5.58168697562001    1.16711376798693    8.61008941780870
H         4.17858195736337    1.79363061958860    7.70136751683342
C         5.48277710597983    3.33415473414771    8.48216543320203
H         5.23183427259554    4.08121815370943    7.72710095365437
H         4.79636949835477    3.47181750319696    9.33533405957078
C         7.32366205542982    4.81403748084686    9.10385304826052
C         7.50386830635755    5.68753597028458    8.02482270047819
C         7.96359926203389    6.97125821185125    8.27109948989594
H         8.09439029038306    7.64599978188365    7.43658186594522
C         8.27434199282066    7.40848662150560    9.55006490103590
C         8.12666232829530    6.51767895303753   10.60079469383290
H         8.37735087292241    6.83336218948578   11.60436194186237
C         7.65103464033680    5.23119653611613   10.39894957591827
C         7.49994979639494    4.30409592019210   11.57487869407974
H         7.68313620680666    4.84240705509008   12.50129312800619
H         8.21606609404839    3.48174548727667   11.52021394443219
H         6.49450615355764    3.88395579650627   11.62301260467603
C         7.25137938648663    5.25216174364564    6.61405779409838
H         6.20941229494966    5.40080433920957    6.32823832600958
H         7.49092471254779    4.19761458163459    6.49998947125179
H         7.86556365292009    5.83309303122651    5.92945142502203
C         8.78701163435470    8.79932035570357    9.77647943961965
H         9.82249281318815    8.87775346061532    9.44354165605484
H         8.74715820558743    9.06207961807768   10.83089240827394
H         8.19981607071323    9.52102977520932    9.21173055562850
C         6.24706940873745    1.62035162938945    3.14141944253103
C         6.04368438955601    0.39297939487423    2.50957672311924
C         5.96336051598478    0.37526414821300    1.12665528628956
H         5.79582013663583   -0.56449103203653    0.62109639953411
C         6.08639235980300    1.53795374301565    0.37824145109885
C         6.30773668122321    2.73934493140635    1.03558077195495
H         6.41426788981333    3.64822873648606    0.46058440768162
C         6.39711701199339    2.80361650270312    2.41832273948451
C         6.64832978113991    4.09676394726862    3.12828449158734
H         6.66453305397971    4.92490007291757    2.42525845281433
H         7.60394776110800    4.06684065980241    3.65126123272053
H         5.87320868372715    4.28383184077696    3.87185107098447
C         5.92107252926704   -0.85998463689931    3.31592713830161
H         6.84798255479563   -1.06548901521667    3.85222228547550
H         5.69373255721252   -1.70706413079185    2.67549752003389
H         5.12566990628030   -0.75748155515055    4.05388748263725
C         6.01163852271205    1.48160608875405   -1.11669227145250
H         6.96066147650440    1.13292830465279   -1.52486401367550
H         5.80221119419373    2.46323494935686   -1.53361171978170
H         5.23517527738574    0.78871070079780   -1.43274227068025
C         3.42900181495988    2.36133351811264    3.33632892758885
C         3.05288667684298    1.55599089693855    2.22140560905929
C         2.74484694601606    0.18713405950141    2.31672193538573
H         2.78438846489997   -0.28934500472623    3.28278198490120
C         2.40459926221972   -0.54089386329337    1.19720546678250
H         2.18131173416598   -1.59369392144592    1.29107717666138
C         2.33881690807011    0.06909853565428   -0.04714503407741
H         2.06295106786225   -0.50402015157829   -0.92068200660664
C         2.62673044373640    1.42059603910535   -0.16407659771122
H         2.57188920625757    1.90288714228099   -1.12969167165926
C         2.98985681153054    2.15088529328967    0.94668667447387
H         3.21869461908224    3.20242557226455    0.84762876978350
C        -0.06714616182297    1.05780066832896    5.07622896523741
H         0.54564515155454    0.16795126616923    5.28566077727347
C        -0.27902712154076    1.10856523733760    3.56326483617936
H         0.67080093299775    1.30460650764248    3.06214940366664
H        -0.97530566603207    1.91214486022536    3.31368490843617
C        -0.86640043976029   -0.21361611121235    3.08023648228979
H        -1.00250526640183   -0.18577488919560    1.99690675215877
H        -0.16875053617712   -1.02111551690494    3.30919119463174
C        -2.20129597818602   -0.47366666398361    3.77240058707622
H        -2.60600282015108   -1.43802719098205    3.45839599656532
H        -2.91740403142840    0.29870122452361    3.47967261460580
C        -2.02965463870530   -0.45449536092630    5.28857825957744
H        -1.37342182166780   -1.27551269521354    5.58650910601703
H        -2.99710811515180   -0.60615859948490    5.77348235258139
C        -1.42214233619824    0.86857698637996    5.75893762451750
H        -2.09837786398542    1.68357649502120    5.49805306677750
H        -1.33081752274783    0.84382697482802    6.84500242041785
C         0.36260871144659    4.08191362511758    5.09204391040963
H         0.94426320514466    4.79634554634308    5.69197886660335
C         0.68599601037722    4.40354062635584    3.63286740550982
H         1.74812342794803    4.22127444123383    3.45399917030692
H         0.11612784193013    3.76523156462278    2.95681471076989
C         0.35570159726108    5.86580018230465    3.34501720559934
H         0.98180327908467    6.50504063800685    3.97087669196735
H         0.57986435386337    6.09592436550445    2.30138939976823
C        -1.11588407001098    6.14735722628054    3.63459711861048
H        -1.33768026036403    7.20122809445697    3.45399764161065
H        -1.73735998944875    5.55496954823361    2.95807294755824
C        -1.45553187977289    5.78647647369917    5.07760009980808
H        -2.51683399323664    5.96479481645692    5.26721987320196
H        -0.88276488429533    6.42488205605675    5.75441972577655
C        -1.12072734666115    4.32170156061646    5.35781924609132
H        -1.72126539476800    3.69346376411227    4.69771767447665
H        -1.38077863346057    4.08147219021622    6.39063826254513
C         0.76339442385258    2.48210190488188    7.47399360910895
H        -0.30970754826970    2.63544564346101    7.64644767271594
C         1.53650180309988    3.63019847031000    8.12707224462120
H         2.60112200808295    3.54205864157241    7.88433653285390
H         1.19665867173866    4.59101173620724    7.73635421357562
C         1.35424194075131    3.62973774615154    9.64251127216628
H         1.94048326154492    4.44210746697800   10.07814133327203
H         0.30269000265068    3.81569168101168    9.87729730751764
C         1.77176010356625    2.29512210029832   10.25033631634192
H         1.60545896450411    2.30821710699147   11.32981719721902
H         2.83920757366453    2.13123891213317   10.07989381866411
C         0.97866486745992    1.16107663325412    9.61075907887559
H        -0.08399909717587    1.29360660786049    9.83127584196286
H         1.28911101960837    0.20138630854851   10.02966090745935
C         1.18547271826345    1.15002865036384    8.09977252552787
H         0.62694790030542    0.32161414604107    7.66105426072412
H         2.24338491744971    0.96340628465126    7.88620389707540
N         6.36829483812480    1.65474318199474    4.55672678429567
N         5.95134146571363    1.75576154812566    6.65679163951183
N         6.87291460078684    3.49439380637139    8.86464269629852
P         1.06556619467459    2.43719769791001    5.62823036724880
Cl        3.79497194077922    4.44079755443273    5.52817359458428
Cl        3.17711757956544   -0.22598200282721    5.61425934976514
Ru        3.37729038605532    2.11826160399832    5.23134010490528
H         8.48185709614666    1.34146716934275    4.68234642473236
H         7.94546273149203    1.49049520194269    7.38671033255861
H         7.08323078157895    2.90070877769928    9.66010591049647
H         3.78620048537046    3.35031398230337    3.01457266413338

