63
CSD_code = HADQIM | q = 0 | S = 0 | Stoichiometry = C16H40N4NiP2 | MND = 4
Ni       33.83233447021778   11.24761451726993    7.77160761026298
P        32.30867639882359    9.26437517714318    7.52673948361798
N        31.95821294155825   10.80882320230072    7.81911360702203
N        33.87567966241090    9.31626528705326    7.93686306418570
C        32.04361942827342    8.66241212775446    5.75448023590475
C        32.71704471075796    9.70391640113888    4.87162314903319
C        30.58037490567082    8.46779375832953    5.38270782646834
C        31.28561339079241    8.11100782504269    8.58637031819402
C        31.52042846022551    8.58436745417609   10.01407536996674
C        31.64814608692212    6.64092707346374    8.42184608080096
C        30.66156879450064   11.42745887907954    7.62158745806331
C        34.82898998913392    8.28250100155152    7.56100765470911
H        32.57688548561332    7.70938066670230    5.65680337100756
H        32.88011685124919    9.33197501774345    3.86100444203639
H        33.68212352028073    9.98522751750270    5.30572873596031
H        32.09959608161454   10.59988810627365    4.81514249361096
H        30.49746695455793    8.20531833356573    4.32772758158418
H        30.01924280950194    9.38498868490594    5.54971829950217
H        30.12271391410360    7.67208898696726    5.96605633110876
H        30.23268351623233    8.26029884989364    8.31755972118602
H        30.95843278643446    7.98193101626263   10.72659983325426
H        31.22645495207467    9.62668143369590   10.11687247754261
H        32.58184252456224    8.51806686788142   10.24792083855226
H        30.99130773917944    6.02381539483119    9.03526719796902
H        32.67147360446808    6.47028135596350    8.74894813827375
H        31.55203229619571    6.31365212695417    7.38830143810793
H        29.85334637123567   10.70151304111746    7.76396952691848
H        30.54322831743878   11.86951985503760    6.62341642362228
H        30.52834330766474   12.22735385018139    8.35394988083465
H        34.33727567664126    7.32027285168872    7.38758411469761
H        35.55223579730673    8.15358747781488    8.37126513780767
H        35.39074749134426    8.53249664589684    6.65339100944189
N        35.70307229499276   11.68155833589439    7.88914941646397
P        35.35084077903630   13.22146346742910    7.57074667917483
N        33.78645159314709   13.17311854876618    7.99296842936772
C        32.83336346393684   14.20514732431902    7.60974937352908
H        33.32289254439738   15.17052319930905    7.44810826852345
H        32.10001885131621   14.32564981342059    8.41196483175336
H        32.28448947012058   13.95740840776346    6.69392247869503
C        35.59227429352344   13.78936045878225    5.78297538761443
C        34.92285102967754   12.71980136383764    4.93021500940562
H        34.69498624595192   13.08304647873111    3.92911075920301
H        33.99062848696134   12.39608995622860    5.41148805887358
H        35.57413228331259   11.85074695167358    4.84210435412706
C        37.04839795474157   13.99777957885388    5.39079852211048
H        37.11562811929915   14.24256316429933    4.33047505157629
H        37.62509015697388   13.09216387044346    5.56776005016072
H        37.50107554712842   14.81027596659651    5.95456939824357
H        35.04469714124670   14.73291337038179    5.67281490433846
C        36.38427827546204   14.39027375143892    8.60138354096659
C        36.16595644655702   13.93454919330016   10.03758861324452
H        36.73513492868751   14.54652545116115   10.73616022526655
H        36.46230669199735   12.89382789292765   10.14959081800689
H        35.10697882086571   14.00257802946844   10.28220453041362
C        36.01784990660304   15.85765098097774    8.42205745954296
H        36.68469521607324   16.48392959537846    9.01499752225105
H        35.00029599163969   16.03257072512688    8.76455055267262
H        36.09551781916563   16.16979703910577    7.38230620861820
H        37.43409737295269   14.23851450378731    8.32190811027737
C        36.99322631144120   11.05835650984843    7.66337579421238
H        37.80671936865188   11.77959188349588    7.80086840118861
H        37.09532853944278   10.62539671364575    6.65974089562104
H        37.13248481770977   10.25102668843204    8.38629750330487

