89
CSD_code = HADSIP | q = 0 | S = 0 | Stoichiometry = C42H38Cl2N2O2P2Ru | MND = 6
Ru        8.93985865450923   -2.91006096914845   -3.15991726660232
Cl       10.11061212892802   -4.75183606213893   -2.13879004464224
Cl       10.73249978051527   -2.27925727359983   -4.56518233346187
P         7.64290101875495   -1.23310655345468   -3.77437215197450
P         8.43269325578213   -4.33397769305256   -4.92965525695343
O         7.29870011214040   -0.27645032190417   -2.50617010514138
O         6.15937313635436   -1.76862771981507   -4.10503759318221
N         9.69284526637335   -1.71588169557764   -1.67571274812942
N         7.34682861432058   -3.42421993649864   -1.97484700820658
C         7.72807822402293   -0.36401017981973   -1.21028424354566
C         6.94395164198855    0.28944948575870   -0.28366469409916
H         6.02422883660156    0.74001309366043   -0.62344351284325
C         7.33873595739553    0.40228212883052    1.05008624461265
H         6.69513394485682    0.91222021540002    1.74998237778135
C         8.54929781714830   -0.09430233801563    1.44766497927845
H         8.89799825871418    0.03483586489400    2.46096430792492
C         9.37996799886860   -0.76339169296876    0.53027027969837
C        10.66921403944730   -1.21610664862853    0.88674818896237
H        11.01071623306138   -1.08443679437140    1.90238816743561
C        11.46744694329652   -1.77724602171761   -0.07281301890237
H        12.47971027870103   -2.08145987282666    0.13854563517383
C        10.93384970123953   -2.02493408675383   -1.34129677503460
H        11.54136861613675   -2.50259363308331   -2.10094000162750
C         8.94294572246070   -0.97922968050687   -0.80927456189671
C         5.54818844426287   -2.84864671420776   -3.52470418170586
C         4.28905829227024   -3.12670205644269   -4.02075035501144
H         3.92323394276064   -2.52284433109080   -4.83709955149257
C         3.48967797603987   -4.12294281686063   -3.46575412027033
H         2.52177245377588   -4.32896743249998   -3.89496497777099
C         3.92230162414472   -4.79278525474076   -2.35491245754372
H         3.29675641268784   -5.52431802010250   -1.86727654075296
C         5.18633156057449   -4.51983765754141   -1.80448900658877
C         5.60142542383574   -5.12476018945018   -0.59894089865345
H         4.95252571115872   -5.83865253116247   -0.11584092505996
C         6.80260669781305   -4.75901369404801   -0.05540075344569
H         7.13811664824087   -5.14427343168491    0.89389063335809
C         7.64747253855920   -3.91861850459652   -0.78046341484578
H         8.62515167730290   -3.69047622127568   -0.37831105323224
C         6.07114947510772   -3.59851219374156   -2.43937851722173
C         7.77944132379538    0.03177809334061   -5.09494995286081
H         7.92762334269190   -0.52779155322712   -6.02525486507784
C         6.54157433198000    0.91380668334843   -5.21688508717209
H         5.66547790994437    0.29878981818167   -5.42842854195988
H         6.37323846042837    1.43405007441218   -4.27149968712226
C         6.75245275804971    1.93037213988451   -6.33575798517253
H         6.87153970105279    1.39945867215901   -7.28330674082068
H         5.87476763480603    2.57548326326766   -6.41805017629784
C         7.99622755313389    2.77413759531145   -6.06975553220201
H         7.85666581728560    3.34223634507638   -5.14676366703266
H         8.14001758705035    3.48866348199353   -6.88300956100935
C         9.22920477320358    1.88456395496465   -5.93431819518162
H         9.40329140318980    1.35570171564922   -6.87390065525448
H        10.10953320919958    2.49479727006990   -5.72422759910634
C         9.02900134591439    0.86474307058181   -4.81841581714422
H         8.91434306776434    1.38578095400341   -3.86284151885627
H         9.89846309634031    0.20540039120807   -4.74741345998020
C         7.12025355392460   -5.58289332969832   -4.67441884064020
C         7.24494888481488   -6.31318475195276   -3.49410259674411
H         8.06746454528314   -6.09642370829515   -2.82331938593247
C         6.34302184846770   -7.31260691100848   -3.18547163887901
H         6.45426649426270   -7.87233286252086   -2.26822493433753
C         5.30042437665662   -7.59395333780021   -4.05272432849902
H         4.58709648037445   -8.36857854872744   -3.81187197884696
C         5.18449498230093   -6.88986285087289   -5.23845282024828
H         4.38488824977579   -7.12049997476796   -5.92786790766031
C         6.09299653409568   -5.89521883262478   -5.55671212938106
H         6.00094910873661   -5.37816374401698   -6.50030784753148
C         9.70294746363436   -5.45572510236583   -5.61978963207928
C        11.01585128942437   -5.48951317762834   -5.17314795543847
H        11.33588596313442   -4.83745827481454   -4.37544836960559
C        11.92357427943848   -6.35716848753303   -5.75776750619644
H        12.94348032361637   -6.37768765446963   -5.40314466249431
C        11.53009896225510   -7.19031978366406   -6.78905679798190
H        12.24003891358720   -7.86680582155522   -7.24278922892953
C        10.22061113082018   -7.15426988208251   -7.24362605671554
H         9.90890931071680   -7.79968212132871   -8.05255749119000
C         9.31079092028521   -6.29318696271379   -6.66386111505436
H         8.29065239115589   -6.26545338032667   -7.02219016174456
C         8.00583684105979   -3.40423810883167   -6.44106423934234
C         6.71505033692687   -2.96980914273398   -6.73094890124326
H         5.89040832375792   -3.25604024353253   -6.09726668091440
C         6.47693936661138   -2.16920022662146   -7.83476846086102
H         5.46916279914580   -1.84423942097942   -8.05216496865545
C         7.52346003714104   -1.77643031627200   -8.65211488253047
H         7.33515315178930   -1.14326605471308   -9.50723947569242
C         8.81199676811262   -2.19780982253623   -8.36628965158163
H         9.63437718959948   -1.89160795197746   -8.99601385841096
C         9.05316926804429   -3.00828227197845   -7.27251308092637
H        10.06141153530226   -3.32347947458912   -7.04613611533686

