78
CSD_code = HADTEM | q = 0 | S = 0 | Stoichiometry = C33H37Cl2NO2P2Ru | MND = 6
Ru        1.27441845229099    4.74378411441203   11.05856850150032
Cl        1.40430500133506    6.94057050813047   10.07949928218447
Cl        1.46256658358388    5.65623939664422   13.18716627183893
P        -1.02067425445556    4.94887167056629   10.97338845222684
C        -1.42098026232868    4.43672834041493    9.24434407699973
H        -1.69144378547993    3.38187245905405    9.26560393252011
H        -2.26853596174083    5.00382455478956    8.85299145506510
C        -0.18534044975538    4.70596057862362    8.38321349384031
H        -0.35322467608635    4.34226643585696    7.35783898414638
H        -0.02062091462575    5.78825375602245    8.34779485767826
N         1.04827801567399    4.09737681692371    8.92017433340912
C         2.21134002957129    4.60400878082848    8.16596978805886
H         2.14919313717912    5.69629649573422    8.14299508682945
H         2.16866133673491    4.22857040386956    7.13197043966224
C         3.54618153486539    4.21824496285466    8.80424335661696
H         4.35165488277679    4.72467277792045    8.26790992168304
H         3.70965330603492    3.13855143483574    8.74662231974935
C         0.97584187260166    2.64415164380182    8.75136925100122
H         0.09145564138073    2.25655513551232    9.24772976300041
H         1.84659600185027    2.16670928162537    9.19859242643546
H         0.92892873746644    2.38730646160831    7.68517403038914
P         3.52867224335854    4.70075058153118   10.60061181857113
C        -2.32052190007322    4.33137349560537   12.08270992777484
C        -1.98513277812695    4.09519159376970   13.41120108777446
H        -0.95600304331608    4.22451989232755   13.72837682124287
C        -2.95325973891610    3.67532333884487   14.30419810585653
H        -2.69440778493301    3.49486781755760   15.33779788709825
C        -4.25603845142634    3.48314100375924   13.87285222950422
H        -5.01126349137626    3.14729367317832   14.56852880346881
C        -4.59016281849809    3.71971881802407   12.54965784529221
H        -5.60663055132866    3.56918689814751   12.21486725801173
C        -3.62739128804183    4.15000229873648   11.65389769596729
H        -3.88994734551510    4.33879394239945   10.62301604676807
C        -1.53403954969372    6.70767502352646   11.04257540850884
C        -1.43626147258083    7.29860466810177   12.30149996457270
H        -1.07507454749413    6.71157601040511   13.13642993069253
C        -1.76333720021296    8.62768612005625   12.48352377690301
H        -1.67096322782222    9.07472978488579   13.46261532887138
C        -2.19812070122136    9.38650541703166   11.40898900664109
H        -2.45183821021869   10.42769477226356   11.54607977080165
C        -2.29201095602266    8.80925051076793   10.15531613466318
H        -2.61654076150309    9.40047158905168    9.31049807729361
C        -1.95861135541937    7.47878974255660    9.96806940018374
H        -2.01716879737367    7.06607177413745    8.97122220262045
C         4.66114315033984    3.53032520272816   11.41019343878763
C         5.61976093383259    2.75758049827283   10.76781921340267
H         5.72143608889564    2.78412378136430    9.69208872649988
C         6.45845795894036    1.94452594841129   11.51086530885549
H         7.20133654796951    1.34143439809395   11.00866140222512
C         6.35049125454134    1.90340949838109   12.89083437083965
H         7.00771635583138    1.26527825841489   13.46305524423119
C         5.40124646967277    2.68040807759948   13.53629922742121
H         5.31678082566461    2.65029494270815   14.61238111114108
C         4.56010241037671    3.49223392945101   12.79973706626671
H         3.80702467944075    4.10191994000954   13.28650405475045
C         4.58226312176764    6.18011909845863   10.72713019992610
C         5.77715927699292    6.27422245428312   10.01984717960969
H         6.08407572878200    5.48027621641750    9.35254963204908
C         6.58685201868170    7.38258476290737   10.17901870315399
H         7.51021819089106    7.45685529470265    9.62236935648551
C         6.21920698653582    8.39370177348194   11.05281071060132
H         6.85321209690433    9.26058317145231   11.16943195034673
C         5.04714988627582    8.28658321935209   11.78129004426781
H         4.76465951459363    9.06679925034039   12.47231256702409
C         4.23103555354512    7.18013114994189   11.62644697984874
H         3.31659909236764    7.09468558839448   12.19781480709040
C         1.29285316825727    2.94180989731816   11.72383732323102
H         2.16312830691512    2.42077500057481   12.13599347106959
C         0.09679121845711    2.16875425938604   11.84965370636558
O        -0.93353154177464    2.38387864322833   11.20443460943613
O         0.17924594276508    1.16778508841652   12.74319030508952
C        -1.01055772367203    0.44857238149008   13.05275060638880
H        -0.94741873738918   -0.52968777686590   12.56143915573446
H        -1.86947744352824    0.99533898241884   12.64747285663629
C        -1.12310537219273    0.28982487010315   14.55975090376123
H        -2.02075561363543   -0.27215612482558   14.80180004239296
H        -1.17666758426972    1.26740851122566   15.03103730748158
H        -0.25463326338105   -0.23671496466787   14.94648386353576

