72
CSD_code = HADVUD | q = 0 | S = 0 | Stoichiometry = C33H32N2NiO4 | MND = 4
Ni        2.88814859764261    9.56798428902766   61.10178229064593
O         2.15709339046963   10.95854484702643   60.13578362600582
O         1.15456619835828    9.04026613887017   61.53785217460550
O         7.24034649795936   11.96171070629093   66.24037852527118
O        10.14191604467125    8.41182046865969   58.02536585616350
N         3.61881532760932    8.18816916808047   62.06532027058301
N         4.62919841445949   10.19039976339750   60.87324701864630
C         0.76781312344026    8.22895784041643   62.44626955194628
C        -0.62113641797219    8.10592829281981   62.72459452926544
C        -1.08240314221082    7.26389036241139   63.69653682932868
C        -0.20059858621081    6.47873784157887   64.45300927027517
C         1.14265489656751    6.55313438860719   64.20849826834760
C         1.65638797668095    7.40864808593857   63.21542715805658
C         3.04416280292242    7.42279238513447   62.93733596632324
C         2.71339009372546   12.02108503748004   59.69855358769757
C         1.92951328231927   12.98423838378682   59.00551461391953
C         2.47041866766620   14.15694899671197   58.56050342852499
C         3.82600035971477   14.45231563206599   58.76518382522610
C         4.62016751756749   13.54682446224988   59.41237662285977
C         4.10231106954810   12.32253133348720   59.87735538858422
C         4.96390444045263   11.38344790536951   60.49225957777048
C         5.00415458076865    7.94878777723895   61.71728647441146
C         5.03909673873995    6.96105161154590   60.51327929522554
C         4.26946970419498    7.47765348514727   59.29737835900267
C         4.49232686230901    5.59701837650652   60.93498743625654
C         5.68167868546810    9.32748491622628   61.43262123973420
C         6.15210421167962    9.99630177700028   62.72837551835919
C         5.35799549172948    9.98290385394202   63.87317655103318
C         5.74758719075375   10.63975211948894   65.01925809580821
C         6.94435112797108   11.35562030630741   65.06005895610893
C         7.72758948850234   11.40416061238217   63.91401022804093
C         7.32657965479141   10.73632373954779   62.76886281536655
C         8.42081659257117   12.72193342882567   66.32939707852800
C         6.86757203411576    9.12011283170984   60.50107103058805
C         7.94776724312003    8.38380649420372   60.97870223680108
C         9.05559684452060    8.12331593230196   60.19376892958098
C         9.10839061308056    8.60134723086447   58.88816938938704
C         8.02930654846680    9.33734000601511   58.40130307485058
C         6.92817138560564    9.58930564039368   59.19389276905232
C        11.25433221416452    7.66788260959836   58.45952876410008
H        -1.29462392638004    8.71475936403214   62.14134087878693
H        -2.14392322170038    7.19945541026589   63.88944854996936
H        -0.58526992654985    5.82096636611212   65.21723914527597
H         1.83688510993107    5.94882777401685   64.77701285932028
H         3.66142727842655    6.72040568359530   63.50242290295070
H         0.88553492341131   12.75403232581902   58.85831369939192
H         1.84643642821959   14.87298712720101   58.04453706568929
H         4.23304871460881   15.38639595495485   58.40937428936364
H         5.67027548890564   13.75375493678666   59.57019831321258
H         5.99916199348507   11.70201997439226   60.62275646961707
H         5.52999959688060    7.46227653065455   62.55351181621470
H         6.08844586255297    6.82652449812985   60.23368896171615
H         4.81880196081925    8.26899564097612   58.79607722344976
H         4.11829828855686    6.66868198011777   58.58628656563001
H         3.27765945166044    7.86395522209944   59.58376744248440
H         3.42919790779337    5.65504451029253   61.15882555157673
H         4.62784801045258    4.88332897043789   60.12592940378242
H         5.01633559423670    5.21719079215838   61.81015892637378
H         4.41012463693858    9.46935581657311   63.87536302231641
H         5.13008592354153   10.62079317376422   65.90304930706037
H         8.65098892844795   11.96119000695994   63.89165911091711
H         7.96146267830589   10.79881089997929   61.89737799807479
H         8.44419461171587   13.11176096832950   67.34569460760795
H         9.30987471251794   12.10611986943978   66.15822122738177
H         8.41516610942149   13.55758487828297   65.62228824946681
H         7.92858996037245    8.01043908210520   61.99209017730396
H         9.86724698901192    7.54909559745913   60.61149316189739
H         8.07390105127662    9.70443811713804   57.38846830492119
H         6.11570261436626   10.16421999019980   58.77543885907547
H        10.97423799902590    6.64345898984213   58.72556681191709
H        11.94073594753513    7.64445850635472   57.61476826377631
H        11.74859053426563    8.14339196287378   59.31295421119649

