91
CSD_code = HADZAQ | q = 0 | S = 0 | Stoichiometry = C41H42CoN3O4 | MND = 6
C         3.11877112721188    4.82782696784335   16.28271700889773
C         3.20399798575339    6.29694157481894   15.83881436043987
C         2.93367692690322    7.29895410784301   16.75845543146500
H         2.66155556699900    7.00514606789290   17.76006819680396
C         3.00197856353125    8.62982308458833   16.38915437885334
H         2.78594208868663    9.40090359887289   17.11468438620844
C         3.34156870147237    8.97378343174171   15.09228509929258
H         3.39573360365020   10.01244805160774   14.79963554884293
C         3.61202903856479    7.97778905370628   14.16924054958967
H         3.87829382477762    8.23875453832742   13.15462992483464
C         3.54650393250831    6.64632260999469   14.53940342626439
H         3.76989458699281    5.88227473040351   13.80926514927219
C         4.45399538948742    4.20786853266957   15.84607169619970
C         4.69034693759441    3.56799593237420   14.63580074137293
H         3.90278429809898    3.44109727621423   13.90687916858283
C         5.94848840421084    3.07876437675111   14.32701654611598
H         6.10929199991451    2.58107788101382   13.38083955566157
C         6.99735230392768    3.22710803168700   15.21555971528586
H         7.97643539428134    2.84192194977028   14.97135353153105
C         6.78263685462502    3.88936561715731   16.41206690537186
H         7.59837192002568    4.03158066479486   17.10662624926530
C         5.52735418274859    4.37888912795590   16.71363833326877
H         5.34764184654549    4.91345480016420   17.63402504214833
C         1.87364094379147    4.19236823083858   15.61774890591946
H         2.03625480385993    3.94867248051134   14.55930399826050
C         0.65566823638031    5.10141490695282   15.75655403083059
H         0.68171553726302    5.54453485900247   16.75169578968518
H         0.64883641858143    5.88788924384521   15.00434042167523
C        -0.54109519902920    4.15704452573199   15.65315705043242
H        -1.30374021308873    4.42899482358297   16.37751819819090
H        -0.97863181802264    4.17098038873258   14.65404452659055
C         0.04083305400897    2.77670252151091   15.96731738437776
H        -0.48111291821871    2.28976400231019   16.78947666117834
H        -0.01100719106817    2.13591565941638   15.07808955745893
C         2.20486699569743    1.75868728284629   15.94478900527572
H         1.56697532694677    0.89374286837599   16.15927643308747
H         2.42132982003124    1.76695490602591   14.86839256586745
C         3.45003784310515    1.58832112412259   16.75669827027700
C         4.53599969269336    0.79673087519865   16.43050131588433
H         4.56564570795530    0.26909591271053   15.49061296815946
C         5.58245665746015    0.70140869146638   17.33679161479596
H         6.44094810649916    0.08818179183129   17.11349888810289
C         5.51885397870034    1.40905572706162   18.52901691679425
H         6.32204008054375    1.35968587143224   19.24680933489694
C         4.40252347265296    2.18572859818376   18.77867214429323
C         4.20286080364846    3.09624879028773   19.94829790478205
H         4.73305582039749    4.02500397062553   19.71279007498021
H         4.62977315300181    2.67735025085375   20.86935569625234
C         2.69421481826178    4.74922763580159   20.79761285964631
H         2.82437838437742    5.53035247792494   20.05075022495489
H         3.48820321353612    4.81674793420417   21.55464676321462
C         1.32426703103004    4.79661712072554   21.46273239353850
H         0.61429895485018    5.27449037618925   20.79309192566342
H         1.35989045323243    5.34431432964210   22.40377878023150
C         0.94025667940994    3.32456495022419   21.66112917740820
H         0.83115144287317    3.06192484090736   22.71336893932682
H        -0.00677312328407    3.11630893920585   21.16775712473404
C         2.07035150654866    2.50248298672798   21.02383864416863
H         2.76404646508347    2.18404153548879   21.81148024835317
C         1.53356396577039    1.29919699590584   20.20315918969215
C         2.57320871573887    0.19236176523314   19.96994632388493
C         2.39616318302610   -0.60327300497475   18.84345253600511
H         1.56230508705378   -0.38055112387983   18.19505939443368
C         3.25392751030228   -1.64673572493930   18.55733425182489
H         3.09739805880257   -2.24606016763056   17.67171666821803
C         4.30652774776595   -1.92971999317354   19.41027738162980
H         4.98276587161965   -2.74350057028625   19.19356031852200
C         4.47413762094584   -1.16952033652591   20.55323960273439
H         5.28096213423165   -1.39353332155288   21.23683433052763
C         3.61288957060354   -0.12307104486182   20.83522429759987
H         3.77310094234566    0.43389632440345   21.74674407288186
C         0.43416603467745    0.57510084574617   20.99241083332464
C         0.63467170869343    0.16576760665501   22.30501167082765
H         1.57040902486890    0.36937934829096   22.80312825943338
C        -0.35971229963461   -0.50970188590296   22.98764348182965
H        -0.19273362538757   -0.81752255147529   24.01005197064045
C        -1.56485654613083   -0.79412383442348   22.36724455835718
H        -2.33946614690561   -1.32212873389892   22.90380382419249
C        -1.76632441615902   -0.40102283210311   21.05654747247265
H        -2.70082932779073   -0.62133344263353   20.56132096679059
C        -0.77140068531038    0.27655316964515   20.37490303447011
H        -0.91968478921899    0.58696982839462   19.35186554737444
N         1.45931295349569    2.96500260052355   16.34406295088588
N         3.39993781740433    2.24771246875632   17.90863401310361
N         2.78356149435042    3.44149826485786   20.12582097082516
O         2.96208597245942    4.75710651879619   17.64993551964828
O         1.03268788529380    1.77782166557505   19.01007243125295
O         0.57219956689533    4.39357199716984   18.69948967188657
O        -0.69061283404499    3.74282217772886   18.68311713207887
H        -0.46052726717516    2.87412003546879   19.06631656836208
Co        1.97290465318641    3.28667351641489   18.28010306942978

