54
CSD_code = HADZAN | q = 0 | S = 0 | Stoichiometry = C26H23AuNOPS | MND = 2
Au        0.61644635863659    3.49539685819469    1.23940738517201
S        -1.20347194197003    2.14934029207101    1.78371291889011
P         2.45378898146793    4.71906337442635    0.75004437405009
O         1.02572208280656    0.91131789318785    1.53328248490441
N        -0.62799862785424   -0.47630011350414    2.21552232424539
C        -0.27635241227764    0.68355897948012    1.86519423230838
C         2.73723752565616    6.16101321702165    1.81065622018873
C         1.61269154699605    6.90076280591013    2.16887884203884
C         1.74858545144930    8.02032149923982    2.96739637457595
C         3.00381318425712    8.39661213882282    3.42033560465040
C         4.12163434276788    7.65396361947003    3.07536461200067
C         3.99499845349748    6.53523975691067    2.27096463673680
C         3.98149825073027    3.75379390658521    0.89317232410457
C         5.04760410417974    3.87042893639439    0.00762899800473
C         6.17343748728407    3.08600613210210    0.18675288386871
C         6.23955028942217    2.18942469300351    1.24115313528526
C         5.17615306609851    2.07005562739946    2.12279791536681
C         4.04660728975505    2.84694512794915    1.94809964030808
C         2.52169928262749    5.38694217818840   -0.93310631085235
C         2.82881373966711    6.70983438706242   -1.22912970885488
C         2.83625087271899    7.12943223523483   -2.54817303584121
C         2.53783287507255    6.23940764222972   -3.56669230010476
C         2.22283786769282    4.92129053525115   -3.27176577320316
C         2.20743566612637    4.49618973680890   -1.95787612080475
C         1.88800738777501   -0.21178726997393    1.56480324949225
C        -1.91674179902571   -0.88224766764648    2.50445357844827
C        -3.00114157038357   -0.59703119832845    1.67538348834858
C        -4.25080923377853   -1.10490228717418    1.97033849643889
C        -4.44102421660283   -1.89975855632830    3.08839783512396
C        -3.36503392548511   -2.19314683074642    3.91043635989089
C        -2.10992746859948   -1.69788269459502    3.61947637925204
H         0.63879795912314    6.58293266737780    1.81748682083903
H         0.87741065355674    8.59549185196988    3.24287154397097
H         3.11025343594655    9.26809107011657    4.04880961119273
H         5.09711449733127    7.94672523917193    3.43490687457723
H         4.86555322807610    5.95303511923879    2.00160868070305
H         4.99269360418931    4.56849415255021   -0.81658405322305
H         7.00178677053041    3.17410665397708   -0.50072409788490
H         7.11995254803787    1.57849407518284    1.37350064120264
H         5.22639941642406    1.36677485092121    2.94076591798801
H         3.20043843303242    2.75423751876642    2.61696574592913
H         3.06006851805898    7.40410579476498   -0.43322874503996
H         3.07543918091843    8.15664729441258   -2.78072078345881
H         2.54474916465327    6.57415598929229   -4.59314420106977
H         1.98297013481504    4.23047695014785   -4.06613357287445
H         1.95088159325522    3.47423692376384   -1.70674217684362
H         2.86362133612896    0.14771641142680    1.24056899086144
H         1.52147611460630   -0.99158218262988    0.89439927656320
H         1.94289272758555   -0.61906394615323    2.57658290773239
H        -2.85110995564336    0.02176409222612    0.80362120144563
H        -5.08549215412296   -0.87505603379090    1.32279349772970
H        -5.42209998953448   -2.29047157426658    3.31742352294948
H        -3.50613934347922   -2.81529896076894    4.78348470823135
H        -1.26550278417727   -1.92089891234277    4.25507664444529

