94
CSD_code = HAFCEX | q = 0 | S = 0 | Stoichiometry = C40H45Cl2N2O2Si2Ta | MND = 6
Ta        9.69295509507154   11.47623544588330   26.04626266090198
Cl       11.69381669517423   10.35186561875374   25.94391056166786
Cl        8.78440548527184    9.75610610010939   24.88234763475518
Si        5.81494629204558   12.25445205534930   24.59013631213109
Si       12.71926208698500   12.45330813249710   29.02984468979902
O         7.96750449585724   12.09163608023564   26.48518278349470
O        10.37064480856115   12.66762589728472   27.27075963894080
N        10.16763408156460   12.60009138035957   24.47702159830944
N         9.40399487243934    9.94617928317901   28.13841560712356
C         7.49343709497283   13.33291620649895   26.56594145170351
C         6.46632758660810   13.67969698305208   25.65249156008867
C         6.02098581798174   14.97060187526836   25.59865847678917
C         6.59221160721019   15.97920502562384   26.40070634859016
C         6.20358226455863   17.32838759149283   26.27641949997149
C         6.78337382301233   18.30011315026984   27.04234744726043
C         7.79065398498055   17.95653114707986   27.95485339125897
C         8.17687603094958   16.65397495756285   28.11033643381592
C         7.57697647185148   15.62035168949294   27.35813582473963
C         7.96608502026180   14.25387711513839   27.49075661399577
C        10.06239786223906   13.22990392950023   28.43308732445216
C        11.01118446454409   13.14027860555387   29.48502581196521
C        10.66426362756309   13.57376927929904   30.73566289049628
C         9.37285122453991   14.06389860842929   31.01456366771871
C         8.98169737287216   14.41408529865040   32.32314586242149
C         7.72132704240439   14.87540739125089   32.57871479218748
C         6.79515471321624   14.99089208033715   31.53170071036061
C         7.14958121647726   14.67589522930811   30.24950378765095
C         8.45228439391304   14.22291183177968   29.94515167571275
C         8.84499237225405   13.87682547068844   28.61959397384895
C        10.32366070104049   14.03505180497846   24.54576358384404
C        10.78238635523254   12.06326628173275   23.28174361961851
C         8.21195684273162   10.24053608794371   28.93434380902202
C         9.48082047450051    8.51790763121482   27.82361748589610
C         6.93157815873453   12.07178535836845   23.06466124612902
C         7.10245963792368   10.85206819799930   22.41792360618024
C         7.83083517853401   10.76141729083910   21.24495245094457
C         8.38865129311539   11.89726825667416   20.68407841326738
C         8.22456002910165   13.12152926303653   21.31127874466171
C         7.50794926365659   13.20281660330403   22.49155364796484
C         4.11993552087445   12.81381291814011   23.89867513611063
C         5.50069682203359   10.65821666537253   25.58164903342651
C        12.64317819389767   10.56232925970130   29.23515415743335
C        13.44678803110814    9.70725966541396   28.48844951132265
C        13.40935767536864    8.33809924305546   28.68419236143090
C        12.57284415879380    7.79394117227831   29.64408297730197
C        11.77448497980987    8.62802535741861   30.40864558686959
C        11.80823419758264    9.99697983421184   30.20057039254590
C        13.94338913897667   13.06004285208793   30.36769963724138
C        13.35116023680502   13.07812499336580   27.34921368661440
H        10.22721985945824   10.16528708899454   28.71104075030596
H         5.22497717430657   15.23676852689088   24.91924265895992
H         5.44165760245310   17.57819394756905   25.55164342578894
H         6.48267044091516   19.33249909008677   26.94144229090278
H         8.26766293848047   18.73229603309184   28.53588894236404
H         8.96663006405846   16.41022035228685   28.80452686864029
H        11.38588491888707   13.53121419170484   31.53780973108590
H         9.70081799073722   14.30051686151321   33.12199425638708
H         7.42737625236932   15.14108238204843   33.58338529033333
H         5.79210357842784   15.32925865722004   31.74586253223841
H         6.42372269534839   14.75459646595169   29.45491825143544
H         6.66107057044143    9.96222509440451   22.83918362433448
H         7.95740304589645    9.80332203797633   20.76162717705242
H         8.94829160921918   11.83021991960848   19.76186343935306
H         8.65130371818183   14.01410690599119   20.87290359213837
H         7.37870051081182   14.16196941012148   22.97502208526664
H         3.66709243245853   12.01382164387986   23.32350685205001
H         4.21964349689829   13.66662364776781   23.23621012641437
H         3.42807117084218   13.08361605667004   24.68942045425490
H         5.08148263498828   10.88723354473041   26.55777540246266
H         6.42291877661221   10.10770282275899   25.73177487571504
H         4.80060415641974   10.00871644140357   25.06433643142747
H        14.10337963110755   10.11964842529642   27.73940144492378
H        14.03616699499419    7.69203626589125   28.08757079949124
H        12.54603083302470    6.72523434542582   29.80023020233846
H        11.12866378841497    8.21235566338025   31.17027730935345
H        11.19158143337133   10.64472398563870   30.81172779953730
H        13.93789038915740   14.14077616965903   30.46208816333439
H        14.95414623470223   12.75579268704780   30.11873427141281
H        13.71334399963133   12.63876509929428   31.34034273328715
H        12.84056527548398   12.58414608045692   26.52973912746260
H        14.41673529598634   12.89820608058138   27.24142023272698
H        13.18349404436669   14.14741852650877   27.25168786926770
H        11.38861506946506   14.30484119126089   24.56586864650605
H         9.84817738325059   14.41010564732916   25.45227017404467
H         9.86089730062267   14.52393619162642   23.68172571396354
H        10.57895134349548   12.69599971040256   22.41427529675887
H        10.38972556984285   11.06601233350842   23.07912543016002
H        11.87103952098227   11.98747102397873   23.41605301481374
H         7.32587476164003   10.04923465805495   28.32886625315211
H         8.21492892683642   11.29073508971587   29.22468570603477
H         8.16661476957478    9.62043443179885   29.83735822432183
H         9.46814165349120    7.90547675434562   28.73164242934869
H        10.40254417805616    8.32247816021679   27.27765345664116
H         8.63635116906212    8.24287815870053   27.19254852226387

