122
CSD_code = HAFCIB | q = 0 | S = 0 | Stoichiometry = C60H53Cl2N2O2Si2Ta | MND = 6
Ta       -1.92019216058026   10.51595077214533    2.87400956093058
Cl       -3.99078638587883   10.14550238058135    2.04250451619139
Cl       -1.73853121087029    8.25618311888814    3.24095946368305
Si        0.95076353831753    9.17574243922137    5.83549978768995
Si       -3.98321207243795   13.89751617440166    1.36210508479504
O        -0.36653903361954   10.83087225069599    3.77393286085544
O        -2.33299561519546   12.36415765264209    3.09333095634535
N        -1.00183801824917   10.41286633932193    1.10840817568815
N        -2.93735276982428   10.36034088561335    5.25053768905741
C         0.24037418083252   11.64851406837153    4.62148325987023
C         0.93284256272253   11.06633198999981    5.71412824646060
C         1.49697092217305   11.88032249055301    6.65909446402782
C         1.35170294405564   13.28029463680558    6.60223627797546
C         1.85517300201324   14.11229713341623    7.62369615346457
C         1.67005736804540   15.46501985129059    7.58153858577579
C         0.95324604234316   16.03742681842074    6.52030720358371
C         0.47114735791386   15.25978851417910    5.50474971011717
C         0.67747984800439   13.86233317877351    5.49552884914653
C         0.19360401229829   13.02854496366607    4.44551629919509
C        -1.58165297833593   13.38705797749373    2.69170747926558
C        -2.14615834342861   14.21194128447286    1.68581661905898
C        -1.39074524525770   15.18958755191431    1.10324794971064
C        -0.03738251490837   15.36910762331976    1.45623137307181
C         0.77968307698572   16.30152134458561    0.78592260460670
C         2.09398171746946   16.45699784446766    1.12620046679187
C         2.64491722444079   15.66859022443271    2.14594255399458
C         1.87266409700033   14.76834837449648    2.82673765425327
C         0.50329923162280   14.60335556564734    2.52338513984211
C        -0.32034533168324   13.65778730239390    3.20787533302298
C         2.38881239244704    8.75252181372717    7.00828030518038
C         3.67720759896661    9.20254748215327    6.73328454343041
C         4.74040621157040    8.88190433262903    7.55683561677468
C         4.53423618568579    8.09417046479475    8.67726082917939
C         3.26129603830773    7.63175849720260    8.96326390569621
C         2.20315673459521    7.95945372432456    8.13410311357852
C        -0.63360625475447    8.67933573078045    6.77213537773442
C        -1.01003216709077    9.42626222950815    7.89066690824662
C        -2.11788908393282    9.08136374559551    8.64373209315709
C        -2.87584080010252    7.97521869427381    8.29359109229604
C        -2.51544688009560    7.21982938967855    7.19035872466941
C        -1.40306900161867    7.56569557819089    6.44062288612415
C         1.31324340527342    8.17437911337238    4.27244297927774
C         1.31140082138593    6.78313700670916    4.34839141728220
C         1.57552288336488    6.00563546885254    3.23724543613156
C         1.87021873865388    6.60802354107678    2.02624714337192
C         1.91333972790253    7.98857487789345    1.94289359927538
C         1.63633962881323    8.76333796594206    3.05533912108779
C        -4.88196827438968   13.62897052306484    3.01650569512276
C        -4.56657249377262   14.44369087833752    4.10211867504806
C        -5.21753775465762   14.31018724189157    5.31542083437619
C        -6.20449589776364   13.35018798890393    5.47033337909489
C        -6.51877206989519   12.52002436699762    4.40802836894655
C        -5.86318880208463   12.65920157750211    3.19579841865208
C        -4.64822005185561   15.53665645748498    0.64974866471573
C        -5.38718675609716   15.57609161427415   -0.52699481610872
C        -5.87292151342121   16.76904066003442   -1.03258897473882
C        -5.62595802900969   17.95677190234774   -0.36634801696116
C        -4.88804016974583   17.94002774352689    0.80521584144810
C        -4.40783338766795   16.74255535780497    1.30223888111081
C        -4.26472880660331   12.58740733133688    0.02882811119272
C        -5.54727892291517   12.16370066246735   -0.30790383967217
C        -5.75510790962030   11.25520494501021   -1.32895790792350
C        -4.67966198408809   10.77071023384553   -2.05339915264153
C        -3.39986797552091   11.19978133095769   -1.74776236324120
C        -3.19617896806342   12.09237490138730   -0.71066237647620
C        -1.27518786909533    9.36058980786040    0.14994789707739
C         0.18883948097694   11.14925792484690    0.74650882787296
C        -4.26613908149331    9.74656709615098    5.26211021223507
C        -2.92574543312392   11.60051682543913    6.02537817933482
H         2.05117975288964   11.44547366400668    7.47871336952535
H         2.38258710775290   13.65102010996393    8.44653321576833
H         2.05751959461899   16.09712820057022    8.36671102336362
H         0.78028945801315   17.10348941693674    6.51153120463793
H        -0.09065242875381   15.71163457693538    4.70213886534021
H        -1.82763170552638   15.83086675754861    0.35098490013506
H         0.34224515442983   16.88421462174965   -0.01227121253526
H         2.71550460789762   17.17204639924330    0.60787765124259
H         3.69182839276392   15.77279773232321    2.39079429172902
H         2.31846238679635   14.15760130720733    3.59712827594773
H        -2.30063026143370    9.70258521047991    5.70994243323916
H         3.84387647664950    9.81698588879103    5.85949150157461
H         5.73229361501559    9.24431230092962    7.32667363572750
H         5.36242185444765    7.84113158011155    9.32338439792606
H         3.09371830350233    7.01429631309382    9.83438042388106
H         1.21240021290808    7.59570581253943    8.36593943600889
H        -0.42113636163239   10.28803558940248    8.17194599043538
H        -2.38783242555065    9.67115172033580    9.50842301403479
H        -3.74014018479239    7.70182513014014    8.88158890399236
H        -3.10008121696984    6.35515526090560    6.91323452316484
H        -1.14180206461812    6.97612306267199    5.57714115423827
H         1.10634200168048    6.30443086140880    5.29500981125016
H         1.55451241302637    4.92821120965787    3.31408532557199
H         2.07405824907720    6.00426289110092    1.15365613821494
H         2.17041836099113    8.45969403740533    1.00384900534379
H         1.67289169177852    9.83958380455136    2.97690092706156
H        -3.78974153574716   15.18788092403390    4.00011008842588
H        -4.95544999555468   14.95493240540835    6.14272003033919
H        -6.71928442884280   13.24690271469102    6.41482046543293
H        -7.28241068718881   11.76309268968314    4.52200699865212
H        -6.10948109486728   11.99180478961214    2.38564121620841
H        -5.58047468411560   14.65676576694580   -1.05968910792934
H        -6.44435771152466   16.77319983190003   -1.95006248763064
H        -6.00312525269334   18.89024803683168   -0.75864224372604
H        -4.68639058227116   18.86324287906728    1.33011358197890
H        -3.82703580407390   16.74422336902248    2.21286034589860
H        -6.39632626678327   12.55695796038083    0.23217864699634
H        -6.75779867825939   10.92970016737285   -1.56674038568135
H        -4.83900508235443   10.06638769962420   -2.85714247333896
H        -2.56190786723438   10.83927025297299   -2.32775092380336
H        -2.19610306699657   12.42709587565312   -0.47254434337546
H         1.02795341713351   10.46805622952173    0.56582943723807
H         0.45528322220388   11.83440729483834    1.55176454895364
H         0.03123938807114   11.73993989045163   -0.16519607058765
H        -1.00415715921671    9.66751656550415   -0.86276100333779
H        -2.33678691863370    9.10882749418761    0.16725884088152
H        -0.69963170634343    8.46070115010057    0.40895718390364
H        -4.61469154021298    9.56822847118003    6.28547133086729
H        -4.22368714736664    8.79872097080806    4.72707584732572
H        -4.96832768576495   10.40826927614004    4.75544410326809
H        -3.54262799900478   12.34284297181826    5.51985883358638
H        -1.90650261984762   11.97902549466768    6.09339993554126
H        -3.31363245291241   11.44352758713837    7.03843544749042

