35
CSD_code = HAFGAZ | q = 0 | S = 0 | Stoichiometry = C8H16N6NiO4 | MND = 4
Ni        4.16021744918393   -0.00000110961692    5.50827863022931
O         7.30513223279117    2.52847981665479    5.04719012259539
O         3.49744509098737    2.69471949132883    2.54239088573237
N         5.74360278603936    0.99416694215776    5.54545943951953
N         3.56480380476589    1.08553364166863    4.10654451030849
C         7.71572143300227    3.62347034667464    4.25041402959174
H         7.75907869949274    3.33883460679490    3.19762110286193
H         8.70533008821140    3.89730700613474    4.61077711176744
H         7.02484686733518    4.46106827215065    4.36080054736253
N         5.38024820382967    2.56729824445580    3.82380584558522
C         6.08807195597258    2.00631660049965    4.79374038888555
C         4.12795388711822    3.78748876715465    1.90159642007888
H         3.42959755599349    4.12677091954853    1.13910134459687
H         5.06890565231733    3.47590568332588    1.44502321048400
H         4.33070787722919    4.58791837133352    2.61531086824646
C         4.17833450292458    2.08872513446329    3.53603649234412
H         6.48612501282123    0.77689817167860    6.21080345057425
H         2.64985228332465    0.93974160077758    3.67895383721718
O         1.01530109017544   -2.52847890882002    5.96937103457236
O         4.82299052040006   -2.69471968364532    8.47416747598798
N         2.57683089129201   -0.99416666632723    5.47110077750582
N         4.75563239729645   -1.08553756122008    6.91001050550498
C         0.60471208570521   -3.62347005084799    6.76614631663182
H         0.56135886751150   -3.33883578398529    7.81893983667570
H        -0.38489821181485   -3.89730394091613    6.40578530427575
H         1.29558529600524   -4.46106868522247    6.65575613633019
N         2.94018572315427   -2.56729836259174    7.19275442747973
C         2.23236188123586   -2.00631640646309    6.22282005751224
C         4.19248063284102   -3.78748624202238    9.11496564581679
H         4.89083833696462   -4.12676946446623    9.87745866537467
H         3.25153162073619   -3.47590003748894    9.57154221283478
H         3.98972138686287   -4.58791648320135    8.40125335392502
C         4.14210065887257   -2.08872659883954    7.48052146336881
H         1.83430671818302   -0.77690007508811    4.80575830114204
H         5.67058472123807   -0.93974755603941    7.33760024707999

