39
CSD_code = HAFHEC | q = -1 | S = 0 | Stoichiometry = C14H16CuS8(1-) | MND = 4
Cu        4.90885100847470    5.91586939566227    7.64638908526830
S         3.19192973940594    6.70503242274878    6.51615392366277
S         5.47840925888453    4.35113190256580    6.19945312001983
S         2.31817002075696    6.01661828783367    3.73280607077213
S         4.12548651261327    3.58943439641643    3.66778916362606
C         4.25139719883953    4.68449070589611    5.03869307973086
C         3.39829783562761    5.73811252433644    5.10852690483740
C         2.33631924797607    3.19062957475838    3.80981026823278
H         2.15278734138183    2.56253148935984    2.93606439027872
C         1.41308306923063    4.41870928892421    3.79429520960623
H         0.81541051572714    4.44064041241778    2.88163824919384
C         0.53767696195817    4.31099653747046    5.04581346276464
H         0.97952813026111    4.89996342314562    5.85190146604516
H        -0.46974010061565    4.68383340016793    4.86722719835051
C         0.57750837779794    2.82926895519957    5.41132959780964
H        -0.10435678693240    2.26355226308958    4.77209080750771
H         0.31063866239950    2.65203029312316    6.45197378106569
C         2.02269635131603    2.44527967018860    5.10815052215078
H         2.17512968326213    1.37183571870500    5.00701737094331
H         2.67311280450455    2.80899088480947    5.90618596728642
S         5.34803151501428    4.70991173502454    9.44047364685534
C         5.98822794484953    5.98865461232760   10.39912722653495
S         6.67044821824631    5.55530365315804   11.96160045567061
C         8.31116308893986    6.36218681048755   11.76853232759812
C         8.24247065603785    7.86184724227064   11.44143588334116
S         6.52852866683323    8.48768348188207   11.22404371734828
C         5.98301064054334    7.29588957166974   10.03293290342972
S         5.64064784188893    7.83649401522841    8.43618415306134
H         8.61575476406828    8.45636250018991   12.27679362859030
C         9.08387451240291    8.06328304644062   10.17818840610771
C        10.02057106991307    6.85816008075111   10.14949131195523
C         9.12774928454507    5.72385289728812   10.64365979597821
H         8.78104911064438    6.20332610784458   12.74097183263790
H         8.46015254188148    5.40684766732251    9.83986383416936
H         9.68285594734775    4.85294023473770   10.98891208278736
H        10.85349719376729    7.00986692671327   10.83999128812158
H        10.42019204388568    6.66812504813619    9.15468195011385
H         9.60912066556487    9.01706256981973   10.19046450251750
H         8.43481846075749    8.04465025188303    9.30064141401061

