31
CSD_code = HAFJAC | q = 1 | S = 0 | Stoichiometry = C10H16CuN4(1+) | MND = 2
Cu        7.57633305321067    4.49790025045987   10.50538449095241
N         7.98845037011191    6.96561357982337   12.08828003017656
H         8.27909704999909    7.45505590017995   11.25574672392311
N         7.61241617602595    5.66843252102790   12.04884851631104
N         7.01462596656266    3.50680948290318    7.77319381974163
H         6.60091335623276    4.39456805118367    7.53260399171230
N         7.53981099666774    3.28191320064862    8.99758594789052
C         6.83635674549366    3.96566913913787   13.66244884733377
H         6.68256745570976    3.36573637842156   12.76684479472180
H         5.90471125488178    4.01915543372555   14.22142764439741
H         7.57526727394428    3.47597101383278   14.29499717456933
C         7.99852990184167    2.02635387050089    8.98830682779453
C         7.91841495058189    7.46223007426808   13.33771024862318
C         7.29520078215318    5.32755375962725   13.30176469102333
C         7.47481425415100    6.43027485085026   14.14110137844252
H         7.30150334957463    6.46187284921752   15.19583613010592
C         8.26532852324292    8.86469121607773   13.65544821338089
H         9.23841211853860    9.12526985697923   13.24289713950762
H         8.28847093787675    9.00754142017901   14.73118288653801
H         7.52604049447671    9.54477221883235   13.23303566033711
C         8.64762494200012    1.40903690462102   10.16855852184328
H         9.60965056231057    0.98574210585597    9.88906830170961
H         8.02982563985290    0.60098563704945   10.55681051198028
H         8.79663507219561    2.14972546044032   10.95252388856429
C         6.64267894759062    2.40754486633361    5.58359137202754
H         5.65059361047673    2.84892963571292    5.51120479175489
H         6.60472152495349    1.38719177452451    5.21489578638586
H         7.31494364034121    2.97806464529312    4.94280915610567
C         7.12632347173672    2.42390374318239    6.98140707688306
C         7.75630674338495    1.45424839425291    7.73675559101185
H         8.01003083388836    0.46154176485987    7.43072984422736

