109
CSD_code = HAFKUX | q = 0 | S = 0 | Stoichiometry = C43H57N2O4PRuS | MND = 5
Ru        9.07598646735718    5.24326609355082   10.36646347113050
S         8.93012068950297    7.39061562597468    9.61980539019249
P         7.61620655515774    4.63734710165780    8.71484902896166
O        10.32439989930153    6.03619009996814   11.84122354482765
O         8.08548567767930    4.97528664567113    7.20342685834215
O         6.09173213259457    5.11471765539737    8.56443811509141
O         7.33168320087444    3.05362858036391    8.66932968024192
N         9.29837746100284    3.17409360623821   12.59627730776897
N         7.67416404206564    4.59066558074151   12.78503866956766
C         8.57973105047105    4.08221497924435   11.94168226202432
C         8.88660444135835    3.01205133195893   13.99079310125829
H         9.72538361268049    3.21970039243695   14.65907233080870
H         8.55567968633750    1.98225615562607   14.16750527115467
C         7.75986563514675    4.03491057685936   14.13290907135803
H         6.80409037019265    3.58667745203611   14.42488334506182
H         7.99913920110080    4.82465769997057   14.85188309601348
C        10.30437969639092    2.30522774083706   12.09612856682172
C        11.64594901773930    2.53094692028900   12.40677269021685
C        12.58374465935469    1.58807685668955   12.01053321056392
H        13.62482600896029    1.75794095255509   12.24486759978596
C        12.22089281949698    0.44452825983360   11.31625702777962
C        10.88250004059391    0.25549661358275   11.00007733883298
H        10.58762851108409   -0.62567474811549   10.44688367027085
C         9.91330628237605    1.16799478200398   11.38522919784326
C        12.07819670518521    3.76752792943341   13.12732860769366
H        11.48750289299858    4.61907496371621   12.78888514904440
H        13.12747814988654    3.97002820619423   12.92765797652999
H        11.95396794739710    3.65842522864561   14.20591983229747
C        13.25036235275904   -0.57089717906205   10.92218869011313
H        14.22282366713780   -0.10288615874114   10.79074597053812
H        12.96971302320385   -1.07136467563104    9.99814514530827
H        13.34345964150237   -1.32928222380437   11.70050762073578
C         8.47256626121529    0.95238515094839   11.03812053700008
H         8.34101932542329   -0.00140762266097   10.53296789946802
H         8.13073105782256    1.75431943091893   10.38351107722897
H         7.84942900476060    0.95742169065751   11.93155988229252
C         6.58440095307575    5.44394017739434   12.45569411318034
C         5.41990292722947    4.86368366684693   11.93998880740866
C         4.30702509595170    5.66484583963262   11.74475347223249
H         3.39201453941329    5.21356126811633   11.38724709811443
C         4.33721057005425    7.02694200083077   12.01011089561976
C         5.50504868461509    7.57990910339052   12.51254250024003
H         5.54168087818068    8.63797348860760   12.73028986326320
C         6.62778004017278    6.80409215276791   12.76971864307061
C         5.38464469900948    3.40383430283913   11.60824519142540
H         4.39574656370536    3.11492684951632   11.26180775525896
H         5.63974429264361    2.79345628472023   12.47375978761557
H         6.10849503608752    3.19456424259600   10.82093884668808
C         3.13485750590851    7.89050561271213   11.77764985301208
H         3.38228797781214    8.70810482363065   11.10228240106185
H         2.79572154354290    8.32751519006758   12.71638958911571
H         2.31833079674954    7.31673395538165   11.34728327629571
C         7.82873950103282    7.42670876334930   13.41279969004816
H         7.65440744965860    7.55568444116690   14.48268681308942
H         8.02583976445025    8.40922738552661   12.98683918602445
H         8.71448310060013    6.80910311743854   13.28224566491568
C        10.32493673649263    4.02104658762478    9.57360810103604
H         9.97422214976379    3.11296500775577    9.06167053735962
C        11.74149130286192    4.17374316510298    9.51093237054095
C        12.55873441604392    3.05764786205869    9.24915995252099
H        12.09021762467543    2.09879847278116    9.07997480686031
C        13.93166675116380    3.16754753775735    9.23779351081951
H        14.53837896637376    2.29252747212606    9.04963682075928
C        14.53889182364491    4.39568778387611    9.45750108325550
H        15.61611959466953    4.47886623178477    9.45005394167328
C        13.75204746167205    5.52048591543786    9.65840127372378
H        14.21639958935909    6.48629115207401    9.79785913415784
C        12.37809856344459    5.41658239912396    9.67434411230600
H        11.77923203848742    6.30962650580529    9.78104652652830
C        10.65357909672345    7.29805437533022   11.72345031458692
C        11.56632649660523    7.88636982624125   12.61445952849794
H        11.99601462761777    7.26644808530010   13.38900796764872
C        11.90597311464486    9.21721396606166   12.49774665029241
H        12.61416705443608    9.64662509789491   13.19307902634718
C        11.35306121372595   10.00882327320648   11.50096319834799
H        11.62588943771343   11.05048092630665   11.41632500533736
C        10.44743709291865    9.45807346939304   10.61317430362295
H         9.99943370334272   10.05357228271119    9.83007141313919
C        10.10046704889851    8.12339795645016   10.72504791131092
C         9.42406608357614    5.21332441776960    6.77345226225993
H        10.05622012928179    5.36852094413645    7.66428755805044
C         9.93034464375172    4.00157070450497    6.00028035361409
H         9.91852184762579    3.12337657681363    6.64015667154383
H        10.95004341847216    4.17533738742489    5.66833819446459
H         9.29705636902817    3.81881780935238    5.13479172458533
C         9.43962457067971    6.47299572810233    5.91572226259515
H         8.72663436740063    6.38004769408171    5.10002721889965
H        10.43462268430565    6.62427192958318    5.50683170144779
H         9.17606464092461    7.33685308127201    6.51920743029539
C         5.56926344963561    6.44393424533353    8.58275266995949
H         5.78820807686837    6.88829233426899    9.56311839929573
C         6.15924390830192    7.31697174544851    7.48657937898909
H         7.20677501062973    7.51395739611864    7.69036303608979
H         5.62679000063581    8.26415153915408    7.45060919087664
H         6.07269611147656    6.81665950753871    6.52545043230434
C         4.06273984253114    6.29435500879351    8.39648258911100
H         3.85430616614984    5.90689186046443    7.40207290029142
H         3.57606263486798    7.25799649484302    8.51308969348582
H         3.66224788780919    5.60362251502147    9.13115940643281
C         6.60467696991439    2.44050215465562    7.59260291478747
H         6.57730624685770    3.14113392454925    6.75091107133748
C         5.18387808208366    2.12934255328708    8.04530256836731
H         5.20624165515123    1.44559764775855    8.89066830661305
H         4.62867025201985    1.67012308613147    7.23127178168238
H         4.68726450156911    3.04639648673532    8.34571755030739
C         7.34803581264888    1.17311018825348    7.18862418386056
H         8.36613454950716    1.41058040603045    6.89359787428451
H         6.84140549429016    0.69589343632547    6.35397526744395
H         7.38267957941309    0.48242148036372    8.02710623404653

