103
CSD_code = HAFQOV | q = 0 | S = 0 | Stoichiometry = C44H50Cl2N2O2P2Ru | MND = 6
Ru        4.94531939102571   11.90393612654209    3.70859653727317
Cl        6.58112632650170   11.72066761009703    5.44657933926257
Cl        3.43714108257723   11.48588336225513    1.89743233078147
P         3.55495919305701   13.06654306046546    5.09837709771393
P         5.68230883831399   13.81495043343400    2.69975445404342
O         3.77637508330070   16.04305435284759    7.65785453242125
O         4.12413744367909   16.94322383675760    0.86265047067975
N         4.33356970595860    9.96560857153654    4.45472489504536
H         4.79385078932224    9.88941223054921    5.36679926599513
H         3.32780527795120    9.86243767848729    4.59909629094940
N         6.24460894409118   10.60326331965255    2.56419807413404
H         5.80695212764874   10.55884994941173    1.63897226029754
H         7.19813769791631   10.94941672466691    2.44602226749204
C         4.39385743490083   14.19045386312114    6.29541444433060
H         5.27093971836156   13.66400665971859    6.67713116023813
H         4.76834669171655   15.05177079123154    5.73525571011508
C         3.49564524749614   14.68017452870793    7.42884832306985
H         2.42914287169243   14.56158139171346    7.16841403615368
H         3.67221885362946   14.09855966764668    8.34643095603538
C         3.01993345124486   16.59086415675089    8.70369623740569
H         1.94443600774046   16.52667809124906    8.49194542481850
H         3.31280993106038   17.63531789419406    8.78851769756730
H         3.21989381220610   16.07657769042649    9.65218862203997
C         2.24672597525211   14.10817492102994    4.38070278804905
C         1.34130385063708   13.47588578821262    3.52936547550191
H         1.42797461012931   12.41064552660241    3.36323798890628
C         0.36425412220619   14.20352851356896    2.87713307233161
H        -0.32939058657028   13.70288349127103    2.21753756164248
C         0.28544333607183   15.57451591792844    3.06017459400759
H        -0.47329467250728   16.14709598712964    2.54705142589045
C         1.18889806108342   16.21157157846938    3.89393540379737
H         1.13555303353734   17.28225980943064    4.02976681168136
C         2.17001243698922   15.48816061119471    4.55047775351531
H         2.86993687922899   16.00602610381945    5.18865879356762
C         2.64939159808813   12.00617995066619    6.28733425670127
C         1.26680410990507   11.88554878756686    6.35173742256186
H         0.64041016474708   12.46172413116147    5.68619986282616
C         0.68662783944937   11.03234808502963    7.27618599734143
H        -0.38955895801621   10.94703967555359    7.32128727884461
C         1.47582644236957   10.29373068775086    8.14068555050648
H         1.01745372386488    9.62898356675188    8.85805073735832
C         2.85605904806522   10.41317459366845    8.08585312316684
H         3.47571192005351    9.84338146213253    8.76337412916537
C         3.43902578556892   11.26332965779669    7.16601482346023
H         4.51630398185830   11.36664335986700    7.12091261938715
C         4.40241784864750   14.75999211013858    1.76853748126038
H         3.78553698331567   14.03543229657397    1.23303011122496
H         3.74918965891883   15.24390873058377    2.49997203266634
C         4.97100273638326   15.81641914446091    0.82493386028974
H         5.99117034200304   16.11005751062715    1.12876980340780
H         5.03768443970272   15.42696267467418   -0.20236198568025
C         4.53842214844463   17.96993519320474    0.00220030280870
H         5.54266199245253   18.32774541135214    0.26514103351383
H         3.82174612371019   18.78088981367334    0.11450605742169
H         4.55040809044218   17.63410229564945   -1.04243693272240
C         6.50383960965330   15.08735558215587    3.70828888966692
C         7.63631729329084   14.68728963674821    4.41665951671509
H         7.99506131945078   13.67252952405580    4.30932564276023
C         8.27623794216618   15.56378554183107    5.27205115373261
H         9.15056293885767   15.24099344135897    5.81812524629677
C         7.78690170707273   16.84931649985940    5.43751257683709
H         8.28127716294689   17.53510145090087    6.10990681815824
C         6.65524204196665   17.25016494667607    4.74766560958437
H         6.26588015471051   18.24894170398997    4.88353315706492
C         6.00950549428669   16.37646207793149    3.88943993810635
H         5.12286057861760   16.70614590725094    3.36918751378947
C         6.86954647744802   13.52087257217572    1.33520978965249
C         8.17500943392743   13.99488622510912    1.29984649083110
H         8.55210694830356   14.60688177819791    2.10640666053904
C         8.99479467720898   13.69149633974107    0.22506244461689
H        10.00792721039654   14.06647588032493    0.20444876817249
C         8.52334450060108   12.91538604281899   -0.81950620142058
H         9.16833851754851   12.68024312631605   -1.65334149171060
C         7.21953353902981   12.44443561588672   -0.79414451875994
H         6.84513498779569   11.84420848599709   -1.61098765381524
C         6.39811924735354   12.74525391044625    0.27521333542372
H         5.37600362369537   12.38745917616556    0.29918741409700
C         4.82143175711757    8.90623697797724    3.56927165871001
H         4.19528464923229    8.91338853146945    2.66684381980950
C         6.26992817516792    9.26574295422717    3.15965097496452
H         6.88290111655459    9.31931276342815    4.06953391787755
C         4.79719346653705    7.53497951515531    4.20212555081726
C         5.34671637223352    7.32686494323529    5.46187930623573
H         5.77989979402566    8.15042248333555    6.01313112997516
C         5.35999805685437    6.06108649174729    6.01878292120770
H         5.78955134553100    5.91098953386387    6.99826203585238
C         4.83119240177263    4.98867335437050    5.32103453824969
H         4.84528549272787    4.00026122684012    5.75544457614749
C         4.28757384725556    5.18766593943757    4.06384906148976
H         3.87626502616276    4.35467993257306    3.51347875838714
C         4.27004994496615    6.45446797030962    3.50835038442336
H         3.84823989753865    6.60718902130752    2.52546544736475
C         6.81553772593108    8.20471989245867    2.23332575783848
C         6.33828340639758    8.08554795901614    0.93323301372657
H         5.58378051671881    8.76597602307302    0.56240581283347
C         6.81162799244779    7.08571154523236    0.10324717602356
H         6.43388852392625    7.00259774281287   -0.90513954665702
C         7.76107706635361    6.19007051366694    0.56466200175565
H         8.12756678628263    5.40794109985602   -0.08327946309647
C         8.23617536707325    6.29905633038656    1.86007255601359
H         8.97442999341914    5.60160131925396    2.22679178281305
C         7.76629186086278    7.30184938965067    2.68905692516437
H         8.13605502301906    7.38327170061195    3.70095913955825

