47
CSD_code = HAFRAH | q = 0 | S = 0 | Stoichiometry = C17H22MoN2O5 | MND = 6
Mo        0.41293638065977    2.28166872196687    4.79291229521172
O         1.79158693624523    3.02036885208273    4.27975351403631
O        -0.85931766241571    2.89398622848951    3.44943249846554
O        -1.24923549328109    1.82583852072095    5.85894154061250
O         1.26285826741895    1.82672826876164    6.60010930885437
O        -0.13272534311630    4.17116536746807    5.70921427963969
N         0.48059239913578    0.62591879087723    4.16735829597522
N         0.70812323906762   -0.53925508781359    3.67683006073514
C         1.95922803058103   -0.88704810281816    3.16658034729051
C         2.98611365134098    0.06407869662169    3.18919922727520
C         4.23381855535776   -0.25646817722443    2.69594283552679
C         4.48691994675772   -1.51655797782881    2.17264250932044
C         3.47282414191523   -2.45784985655461    2.14859168055511
C         2.21581779337165   -2.15501060722051    2.64020996283255
C        -0.36495372899672   -1.52424677713419    3.71461748961447
C        -2.71774935351061    3.70721767199841    2.20696496555716
C        -2.11802083386344    3.04144245062061    3.42581979039198
C        -2.96393883329307    2.59513392109171    4.44834418392036
C        -2.47938619121266    2.01599265487460    5.62152324926668
C        -3.47442021695556    1.58501782787192    6.67869371175340
C         2.80018981921430    2.14723180093644    8.36488005362201
C         1.79895394706132    2.68750010642762    7.36419206953197
C         1.54986010313109    4.05512999849797    7.36729328514404
C         0.61709136317634    4.71702387918126    6.54968457347018
C         0.48639117831367    6.21427587263023    6.73799959547333
H         2.77621767057416    1.04540096030704    3.59703336146779
H         5.01848103145995    0.48472452682483    2.71794079286161
H         5.46467519498421   -1.76153187806035    1.78601451306619
H         3.65854364072578   -3.44179796475398    1.74213406325199
H         1.44774602751154   -2.91081383162789    2.60623320200563
H        -0.07299943263266   -2.39563538586063    4.30397951997015
H        -0.63797995805174   -1.84138320965498    2.70618181991526
H        -1.22348301284332   -1.04557738810435    4.18483825621744
H        -3.29631907744822    4.58074536338204    2.49824691097533
H        -3.38171564014170    3.01706785477325    1.68999370870302
H        -1.91706734336666    4.00929745676331    1.53563484428667
H        -4.02798583178488    2.73550251726871    4.33926885570304
H        -4.25156344892207    0.96263234363045    6.24142550702072
H        -3.94832265675275    2.46101811745542    7.11840765330281
H        -2.95838923752095    1.03263772715176    7.46068993194457
H         2.63216937127396    2.56441972298258    9.35412742476621
H         3.80343445323204    2.41908847673181    8.04197474615691
H         2.72573023614799    1.06287407819318    8.39775028915131
H         2.10899470235439    4.66109494600254    8.06505663331983
H         0.33677446468547    6.45956635522920    7.78670706116631
H        -0.34704648575386    6.58809937774242    6.14849911498994
H         1.40254723507958    6.69518678895395    6.40143046577002

