70
CSD_code = HAFZEV | q = 0 | S = 0 | Stoichiometry = C28H39N2Y | MND = 9
Y         1.88414545371651    7.57537488581167    4.05197931365054
N        -0.87451483884357    7.42662208959650    4.88728200625929
N         3.93068925355579    9.01259471347213    5.35180717116849
C         0.71030763518755    9.58466808784161    3.89926986288033
H         1.25273459019692   10.52121060718506    3.71468732360393
H         0.02772784808953    9.44835002704793    3.04955124115012
C        -0.06909373732708    9.72206482993255    5.14871408251997
C        -0.00670089305883   10.88783520589407    5.91825489687798
H         0.60431289541711   11.70943149593517    5.56709235740711
C        -0.70380081577202   11.02334642872631    7.10225164099279
H        -0.63235266953488   11.94036020056860    7.66903714662689
C        -1.50351512592042    9.98872878480887    7.55275232203403
H        -2.06550696694244   10.08730263067273    8.46927938486887
C        -1.58028869403308    8.81628665748176    6.81787930043454
H        -2.20276430895815    8.01470356932062    7.18654289778178
C        -0.87160480663963    8.66578955552591    5.63736497657774
C        -1.90621830775990    7.46287079981619    3.85059777265973
H        -2.91394169717104    7.47232974398878    4.28998556139133
H        -1.81372136450840    6.58138059957786    3.21560612713147
H        -1.79598291083778    8.35569871389435    3.23968148734265
C        -1.07627599449972    6.23514007898370    5.71198770511048
H        -0.42959594668065    6.27818308554542    6.58715115443175
H        -0.81710081207239    5.35455868029571    5.12041221950678
H        -2.11741001316517    6.12111137103056    6.04336123725939
C         2.49878963643375    6.65655582309918    6.09446287192962
H         2.09012197735740    7.32229447194622    6.86925072634629
H         2.17246084681989    5.63985766797363    6.35008233866688
C         3.98046437468249    6.69872879203923    6.13683180628541
C         4.72628509041983    5.56377122354240    6.46841804012333
H         4.19994640391589    4.64817332994063    6.70292849005926
C         6.10701417166406    5.57926576008070    6.50108467731672
H         6.65074423394249    4.68229376684513    6.76000964872822
C         6.79072579585639    6.74691150179101    6.21283291593915
H         7.86932961616049    6.77583704473364    6.25027813286120
C         6.08070421866880    7.88490288869983    5.86409156516153
H         6.62806096727365    8.78416490853608    5.62398045798240
C         4.69615440647909    7.87221331027942    5.80789077480267
C         4.63474653809906    9.85329593110307    4.38366599274052
H         5.42003774469177   10.46652784265788    4.84641569504790
H         3.91350474200051   10.52999074497619    3.92001016096990
H         5.08189438626311    9.22775230197702    3.61289864045431
C         3.51116628673917    9.83809221495615    6.48608001981162
H         3.02517949641150    9.22372434798305    7.24038242063507
H         2.80372892524921   10.59461729850744    6.14737965686979
H         4.37169505432783   10.33822244179355    6.95211645456030
C         2.89037165585234    7.46316694821509    1.53708636102614
C         1.56990596769053    6.92672364029531    1.47663854470969
C         1.56579652866457    5.69052533145355    2.17898627154611
C         2.88225927264682    5.46687966823865    2.66911493967591
C         3.70071083175394    6.55396679067760    2.26292606746519
C         3.34015506707888    8.68472935729875    0.78083785032694
H         2.69998425022635    9.54595299874953    0.98675861140067
H         3.30597970364536    8.49772414597645   -0.29503639584289
H         4.36252871736815    8.95485427144479    1.03830596221094
C         0.46759729246536    7.46737196884845    0.60724199652562
H         0.56692314618427    7.08144622190933   -0.41079506636302
H         0.50739113143568    8.55497349657198    0.55022575771203
H        -0.51637226033398    7.17826512580307    0.97507160256018
C         0.46201879337129    4.66700110194951    2.18894428067013
H        -0.49092516295588    5.10904274541897    1.90264963927785
H         0.34908358024519    4.20180058683784    3.17067859097250
H         0.68286293271867    3.87038417514804    1.47427373643727
C         3.37875967518993    4.20404533162830    3.31344305843620
H         2.59250139913939    3.71719718647189    3.89014244493594
H         4.21884818155243    4.40828655108677    3.97597644194298
H         3.71792172659741    3.49688725107815    2.55177468234148
C         5.19632339975453    6.57950146104743    2.41760034427286
H         5.64019923095177    5.75388877423212    1.85737451492520
H         5.50173806906610    6.47014192904235    3.45969985945003
H         5.62035418379885    7.50360648417458    2.02885922639523

