74
CSD_code = HAFZOG | q = 0 | S = 0 | Stoichiometry = C28H38Cl2O2P3Re | MND = 6
Re        5.78547452123507    4.04881807585726    3.85005559263306
Cl        6.87064485553986    3.32258385487706    5.74138935934553
Cl        7.91021579823293    4.74105384240170    2.99515714046577
P         6.53833139108031    1.99239391270529    2.78886706722015
P         3.84329063108358    3.24071918383019    5.09685763336836
P         5.80349919543522    6.30438657607992    4.76755591289979
O         3.00190489657024    5.69448098134908    1.32930765109227
O         3.99325892076826    3.95534954331032    0.25523501588008
C         4.73630910434722    4.50529479389744    2.36975990959498
C         3.83348509624571    4.80101080605516    1.31484433217232
C         3.11241834411022    4.12904113551856   -0.84750476778205
H         3.70620288678948    3.91487538536075   -1.73994071717181
H         2.77146505344240    5.16970987391076   -0.86860169172151
C         1.92156907416744    3.18433922234095   -0.74626254356502
H         1.27950366903893    3.31048019573629   -1.61350900582156
H         1.34935806244326    3.40483386245664    0.15210919826054
H         2.26376843413597    2.15269674954294   -0.70352218557019
C         5.36227301770009    0.61481745498466    2.63827397654356
C         4.20102915682097    0.87271416678045    1.91246867279315
H         4.07753877496793    1.85251226278136    1.47131315457669
C         3.23622331067359   -0.10569241586178    1.77017072683189
H         2.33793583707665    0.09567082666244    1.20393285389769
C         3.41689104430267   -1.34848928806824    2.35947497322232
H         2.66273170943311   -2.11389229332006    2.25095575697899
C         4.56375321247625   -1.60555440519327    3.09030530119969
H         4.70408633366878   -2.57186496926105    3.55287619777592
C         5.53502470924836   -0.62776699448661    3.23383067988325
H         6.42241430678869   -0.83843576858144    3.81212036046818
C         6.99717394298301    2.24375064633532    1.04017674581990
H         6.15505621375461    2.69253019928197    0.51626020526124
H         7.26312189958202    1.28715104593504    0.59038623677625
H         7.84080018420269    2.93117419395348    1.00279449475770
C         8.05221941982866    1.26634154583608    3.48662797593126
H         8.81439367212253    2.04726535221757    3.47856963719434
H         8.37502869501202    0.42336858688937    2.87474982079050
H         7.88386778542067    0.95490095882739    4.51672186333214
C         3.34037431485383    4.18543700386601    6.56962476570395
C         2.10166611079389    4.80873929756067    6.66989376704348
H         1.40353963840180    4.77258406372905    5.84896566648845
C         1.75885409467452    5.48872354456906    7.82460126915780
H         0.79113713418782    5.96314931519445    7.89661290282840
C         2.64753978005596    5.56654587483295    8.88302827558018
H         2.37428093971740    6.09954970181602    9.78183238236544
C         3.88975064917114    4.96351095089144    8.78237996922968
H         4.59072340148513    5.02613221511182    9.60253735965571
C         4.23306226664046    4.27463353251291    7.63461007739066
H         5.20301239853407    3.80489399568108    7.55527586255424
C         2.31027524016672    3.06224124059490    4.12296696661681
H         2.05765316254835    4.01827844142102    3.66957214913826
H         1.49428843768642    2.70010196728533    4.74670458936302
H         2.51724875782254    2.34379170973765    3.33119915457402
C         4.00870887699590    1.56344453199444    5.80942162233984
H         4.10193170777724    0.84323771867389    4.99730674315077
H         3.12813302796592    1.33958627355036    6.41181201711954
H         4.90080050581639    1.52089646418780    6.43107073870435
C         4.26602958960765    7.05184675218361    5.37813593815881
C         4.14920267583191    7.71615486682903    6.59011968829445
H         4.98126844347103    7.75780992078878    7.27729334049760
C         2.95514512838426    8.33209664912101    6.92491265663896
H         2.86842610692339    8.85298871494587    7.86769524851241
C         1.87925866299216    8.28926919770729    6.05575787073682
H         0.95441960582164    8.78211728573407    6.31842804581647
C         1.98839291582784    7.61026718882336    4.85200254004534
H         1.14975920443003    7.56973306362282    4.17270912698242
C         3.17453946378664    6.98780203434186    4.51602881776099
H         3.27573849883885    6.44862903577969    3.58177390248221
C         7.06097684461497    6.59113135506150    6.05037818947179
H         6.80193161828008    6.04407189795342    6.95634296245935
H         7.15259067551605    7.65795539421285    6.25578481355375
H         8.00833891620412    6.20837609138875    5.66581504300909
C         6.24788400225621    7.54059667928200    3.49714564705378
H         7.23617730929191    7.30872987131923    3.10286240593808
H         6.23536368399895    8.53721643294267    3.93913910755545
H         5.51931304822145    7.47896062383709    2.68975084047892

