59
CSD_code = HAGBAT | q = 0 | S = 0 | Stoichiometry = C27H26Cl2NiOP2 | MND = 4
Ni       -3.09121910300170    8.10143846203354    9.76937220214965
P        -1.36446442495581    6.85374374443517    9.75818563011391
P        -2.46866089433180    9.71960075785642    8.53290716386302
Cl       -4.78915178687901    9.32989723213674    9.87411892575517
Cl       -3.72760499685651    6.54594636342471   11.03429739951671
O         1.47580199984442    9.26496957669076    8.14451705314674
H         2.15462520989642    8.89870717240376    8.72174642991088
C         0.04885212070008    7.35497440605596    8.64312290578409
H         0.96756443140414    6.90174232279891    9.02958042474052
H        -0.10585926988796    6.97845229522645    7.63003233614584
C         0.20101303291342    8.87897357848529    8.61178192875743
H         0.04899759916927    9.27199416814265    9.63919288394881
C        -0.82274330078396    9.52821816221369    7.68192894823466
H        -0.92465655989823    8.93396719958849    6.77221404000407
H        -0.44664703587305   10.51406649713438    7.39783144586868
C        -0.48846125340476    6.85890419951070   11.35206965825362
C         0.62332762858637    6.05059450279365   11.57100173686172
H         0.95103086983592    5.36075319888817   10.80442904260332
C         1.29498214715492    6.11436851781283   12.77766926073151
H         2.15107928671858    5.47814068676235   12.94950171237044
C         0.87147167845351    6.98902377320653   13.76647878739530
H         1.40041806338457    7.03426106805671   14.70684931523785
C        -0.23229376708917    7.79729154806116   13.55171383570991
H        -0.56734306512042    8.47448468160532   14.32297309368022
C        -0.91069547077734    7.72955098097601   12.34857743010468
H        -1.79463987552049    8.33497671769833   12.17588357769798
C        -1.55198802952113    5.10517488284593    9.30895734167192
C        -1.77048697641902    4.77073970278412    7.97608508024455
H        -1.80241240761464    5.54710869287591    7.22292545165963
C        -1.97398251794966    3.45223428570285    7.61356398670901
H        -2.14362785902167    3.19844516307949    6.57729952321281
C        -1.97242049421755    2.46061105323981    8.58056477520209
H        -2.13227253152258    1.43085300065226    8.29729957137084
C        -1.78765493116762    2.79356410290767    9.91255480999036
H        -1.81042453268206    2.02423298305168   10.67010334430972
C        -1.58770492176732    4.11116009311500   10.28089880283786
H        -1.47747485978953    4.37617013059914   11.32205665466195
C        -2.16781380236382   11.26581293941400    9.43912436912462
C        -1.80444309382272   12.43005346671537    8.76859452240410
H        -1.74689559912624   12.43726443740809    7.68853424453386
C        -1.53549975610406   13.58137604982881    9.48451106234167
H        -1.26224955091631   14.48653195236412    8.96202783199297
C        -1.61635451671047   13.57746304158144   10.86859092251445
H        -1.40396093082571   14.47992757242960   11.42245088317895
C        -1.97510864187746   12.42050239038770   11.53939748266114
H        -2.04406194392283   12.41712986792134   12.61700191085958
C        -2.25212133429190   11.26889007871403   10.82536852565309
H        -2.56176422952891   10.36324463110910   11.33540575365302
C        -3.53317581175511   10.16961566848440    7.13383070047062
C        -3.59330011641214    9.32054750122470    6.03311530261927
H        -2.99098584949667    8.42179225464212    6.01162232214314
C        -4.43994051492730    9.60688458470230    4.97849087235591
H        -4.48264908904005    8.94419672546235    4.12638368675030
C        -5.24110892689568   10.73596330710651    5.02137878789617
H        -5.90338949411390   10.95883667857435    4.19800337176670
C        -5.20755813853328   11.56642055222348    6.12964363258381
H        -5.84904937104635   12.43406263567021    6.17426021505565
C        -4.36485677384572   11.28270437893054    7.18855474166255
H        -4.36098571645057   11.91134338024465    8.06682234731785

