33
CSD_code = HAGCEY | q = 0 | S = 0 | Stoichiometry = C14H10FeN2O4S2 | MND = 8
Fe        2.22111949917643    2.10886202224430    2.29988473694899
C         3.08552378934877    2.29553078727735    3.79211270347815
O         3.59163913536083    2.46628942263419    4.80418625554660
C         1.54747848304571    3.67399252815703    2.67415734367897
O         1.10363245018454    4.67565549949433    2.99440636670056
S        -4.41783484286643    5.42682764766735    9.13355944249520
C        -3.77229254787551    5.01411095768604    7.78337068720596
N        -3.30988057835279    4.89014706160250    6.68637268778312
S        -0.69494776475137    1.57036935148809    2.54711082474401
N         0.72124569276511    1.10101532023982    3.13901340288825
H         0.63800770632211    0.54417051974466    3.97366318762497
O        -1.56000336633911    0.45482166914495    2.27163108573004
O        -0.34030362767795    2.45066104878544    1.44746276095229
C        -1.49778886850854    2.57036358630015    3.80661216980994
C        -1.80810457354549    3.89016746946104    3.53829135681339
H        -1.56922101547913    4.28868513235372    2.56547341938732
C        -2.41531791844877    4.66531538728847    4.50713599138447
H        -2.66590691979816    5.69740667123369    4.31860426469162
C        -2.71381482043948    4.10479153558479    5.75015187357290
C        -2.40781344601072    2.76524896243823    6.01241679950392
H        -2.65311338830582    2.34235998967003    6.97502646409933
C        -1.80087695744382    2.00487422641160    5.03267006081833
H        -1.57320421389835    0.96456839621750    5.20649379901472
C         2.01732001711010    0.95453321420324    0.12907936523466
H         1.14044751707784    0.48153143159782   -0.27630689494332
C         3.00028802153072    0.31740894018080    0.94838443999898
H         3.01381621383634   -0.72943089855213    1.19964970963614
C         4.03255361243929    1.23602228570792    1.18725835095619
H         4.97602350553030    1.02972216165483    1.66550251948753
C         3.63529282832820    2.48362042742273    0.62729525228578
H         4.27502367715274    3.34526584388650    0.51369498385566
C         2.41429654584411    2.26992980144400   -0.08438565817249
H         1.90961615469095    2.99346159933087   -0.69837975321271

