29
CSD_code = HAGDOI | q = 0 | S = 0 | Stoichiometry = C6H16Cl2MoN2O2 | MND = 6
Mo        7.00877251693286    2.36746563350792    2.86403943831331
Cl        5.87829609849654    0.34616795465385    2.60693541163056
Cl        6.29821155457383    2.93536211905904    0.80774472150909
O         5.89223484777914    3.00833616304516    3.89402281665808
O         8.37887290204666    3.28565447321295    2.91926644488762
N         8.77166071465770    0.89284149702148    1.76203241758260
N         7.94381864771379    1.20068013068864    4.62436657400818
C         8.42050038057823   -0.34455060774094    1.06162180417669
C         9.48737983197567    1.74497846648418    0.80700133634297
C         9.64277534264839    0.60156299654862    2.90698928059141
C         8.84339143651752    0.14680275964280    4.12827899054259
C         8.68846284916434    2.18287301836867    5.42289819115390
C         6.94384375270416    0.60296919630250    5.51871018955568
H         7.72738816321985   -0.11432585229351    0.25290578982088
H         9.31744880781428   -0.81576377608846    0.63677676676002
H         7.93042246019114   -1.04953112294006    1.72912821710436
H         8.85271512927022    1.92423252702055   -0.06012116698175
H        10.41916384281791    1.26728245311274    0.47639637164419
H         9.71120517853167    2.70475669300758    1.27110513964479
H        10.37622935800847   -0.17901768941573    2.64727165300290
H        10.18863288771380    1.51548853103729    3.15235383001101
H         8.22830741056263   -0.71568862534769    3.85442784850671
H         9.53868836191751   -0.15927590285495    4.92400972081000
H         9.43878963663062    2.68000791182788    4.81113931981059
H         7.99272907834169    2.94928262568342    5.76564512448940
H         9.16481556937673    1.69574789234162    6.28314256385041
H         6.37026781499730   -0.15928682099684    4.99222474452115
H         6.25465363796311    1.38374337980345    5.84214422213738
H         7.43162178685390    0.15360397530653    6.39144223791534

