48
CSD_code = HAGDAU | q = 0 | S = 0 | Stoichiometry = C12H26B9Rh | MND = 10
Rh       11.98125274637639    4.38911692941922    2.69355635235807
C        10.16720119050811    4.53155921392353    4.15232679217085
C         9.75577450285913    4.46884202303010    2.64622839224641
C        10.16544595545687    3.24248651324828    4.96802726359246
C         9.30968303791747    3.12328360293792    2.08849385002248
B        10.47973593417916    5.63128066909638    1.63961070616394
B        11.57634951020403    6.53458948695503    2.70694830912896
B        11.32128716400278    5.69470477506877    4.37327045054335
B         8.60904830628288    5.18592517607503    3.79807545603804
B         8.81473878752795    5.84823642236493    2.20450135946526
B         9.96453582969905    7.18687105785566    2.29712823805508
B        10.57023887647863    7.23286668843994    4.00081406244802
B         9.64572865211250    6.00357181846107    4.90106138686487
B         8.84067280475384    6.92739769116407    3.63435353068114
C        14.11205193331842    4.61955672183582    3.38938367677904
C        13.69111150522957    3.38238664523014    3.80740926943588
C        14.01797890774616    2.07747410260221    3.11915766240691
C        12.95276742534748    1.76459064886639    2.09728624114976
C        12.54044752913200    2.62060303342984    1.13256391601738
C        13.04261139922796    3.97202691145900    0.92156682817430
C        14.55906482727876    4.17579946055959    0.94518873397813
C        15.02580051941623    4.88308729033239    2.21938654844878
H        10.83922586407581    2.48505675938648    4.55998651921959
H         9.16930260110740    2.80140490163578    5.02291932095452
H        10.48699944352301    3.45629454943967    5.98664650991078
H         9.22908201257158    3.18019444030906    1.00388959944621
H         8.32974469826923    2.84107886474597    2.47598348167057
H        10.00152267827706    2.31440786935109    2.33423894466261
H        10.54143349426059    5.42137901984597    0.47858582327388
H        12.56098798229687    7.11034210407905    2.40546896854639
H        12.11590973960335    5.56550650492161    5.23887001180089
H         7.68713532195341    4.52252698996981    4.10454700268898
H         7.95743207282202    5.70506406459321    1.41116102646348
H         9.90564169503481    8.14693326458164    1.61907452338303
H        10.92614255645356    8.23194958002462    4.51336450492028
H         9.44728402465531    5.97989490449532    6.05999138935247
H         7.97518249869064    7.68712728577470    3.87259500779961
H        14.09434371715144    5.42674424529524    4.11449310525367
H        13.31865370093476    3.27872589245288    4.82275437272723
H        15.00730463365112    2.12560314716599    2.65784933757873
H        14.04404986349906    1.27701823835444    3.86152939191599
H        12.49650373575980    0.78443236464865    2.16522283328774
H        11.74734525579606    2.28242313803811    0.47085035092771
H        12.61275744564154    4.42675345283526    0.02998886008586
H        15.05275812215292    3.20856751817139    0.83353432506931
H        14.84746623263825    4.77787629986972    0.08201926284242
H        16.04533859719158    4.58141745397468    2.48401596698704
H        15.03872466693128    5.95922026368511    2.04438053306515

