141
CSD_code = HAGDAW | q = 0 | S = 0 | Stoichiometry = C62H74I2N2Ni | MND = 4
Ni       -4.99939686125843    1.53019788266607   18.99473607857071
I        -4.94105834128407   -0.02282820480368   17.04905151747579
I        -5.11200642796267    2.96707473824747   21.02568794968802
N        -2.07961045300737    1.60347875074234   18.99821310872561
N        -7.90805980508023    1.56286339973240   18.81714106152789
C        -3.24314490267059    1.57645765147973   19.01572268575465
C        -6.75070961523319    1.51186360664220   18.92302542010258
C        -0.72964631446800    1.64096857259323   18.99668816694972
C        -0.05127714060360    1.41012521248768   17.79536810260601
C         1.33518837046229    1.46948970571446   17.81695994948312
H         1.88002184386987    1.30341725965061   16.89968202678952
C         2.01070954037417    1.72659484376501   18.99919301347610
H         3.08992263598696    1.76120318162865   18.99967456778353
C         1.31898086137162    1.93793735055104   20.18116508969711
H         1.85066088000568    2.13528894214756   21.09994656939400
C        -0.06824621756205    1.90948363011404   20.19978422437951
C        -0.85642869395671    2.16972206819350   21.42756622240475
C        -1.47068949487739    1.11307375885966   22.10669098375610
C        -2.18080396727874    1.39024254832081   23.26675758840276
H        -2.65316734137026    0.58664123665589   23.81035511831002
C        -2.30743429428832    2.68508940379097   23.72804552546189
H        -2.87386259420290    2.88611387154396   24.62433208716879
C        -1.73751910700059    3.72729285554905   23.02386853056608
H        -1.87894704670270    4.73821972508297   23.37070415536683
C        -1.00541859047529    3.48839037989482   21.87027008455526
C        -0.81681738919381    1.08791730263466   16.56775890019972
C        -0.87323460270317   -0.24134948189136   16.13498646126043
C        -1.59195112597466   -0.54034311580264   14.98689595771293
H        -1.66326639940982   -1.56170244639208   14.64925287166245
C        -2.23664940282363    0.45302831487240   14.27686857869375
H        -2.79225203492927    0.20459004385705   13.38560846400311
C        -2.19444877035270    1.75822689511964   14.72395713081527
H        -2.71966454407889    2.52333212768616   14.17320006616004
C        -1.50018457365285    2.09386889954829   15.87817489233527
C        -0.57033181911723   -1.16428838075475   22.59883192549520
H        -0.48040441066434   -2.18402785088890   22.23017092942473
H        -1.05246265247814   -1.19067498305170   23.57286421183148
H         0.42880714249944   -0.75093412212554   22.72207619772804
C        -1.37718813422036   -0.31461180928831   21.61390874394906
H        -0.84821807801223   -0.33462899928320   20.65486771419876
C        -2.76974097313584   -0.91477188618971   21.40062633984462
H        -3.37914952500107   -0.27217609753838   20.75929772502328
H        -3.29485506638835   -1.03335527195158   22.34500067189505
H        -2.69246410556474   -1.89055910226398   20.92465907024950
C         0.29538751137503    5.65431012571353   21.92079180999712
H         0.76314047537670    6.40386722830034   21.28567241177306
H         1.07293825368357    5.15362804735283   22.49396272491672
H        -0.36835532362220    6.16556812505523   22.61223314854649
C        -0.46777938197410    4.64696929151914   21.06077271633437
H         0.22684313174481    4.26488938564054   20.30495386844331
C        -1.63309296204138    5.32409957326524   20.33319537514177
H        -1.27118518869114    6.14617951243046   19.71883377680749
H        -2.35703695189185    5.70980010946588   21.04649575604802
H        -2.14653855140805    4.61151821576431   19.69135019433170
C        -0.73572502854109    4.41462721171455   15.35951779091798
H         0.28719466756313    4.06116861961028   15.24628945653491
H        -0.70961209067585    5.44283593600706   15.71456929622530
H        -1.21344434091256    4.39838327767993   14.38302281852527
C        -1.49447203463143    3.53069961338463   16.35247804223914
H        -0.97261893067636    3.59459913710989   17.31344920956396
C        -2.92176263186625    4.04640228369173   16.55252359862089
H        -2.90861750237987    5.03100872812001   17.01628852759698
H        -3.49047093807041    3.37358433007128   17.19973681383427
H        -3.44844934473211    4.11811856635583   15.60428535562059
C         0.60079689634394   -2.28976102950312   16.07769009923741
H         1.13298140707010   -2.99824761317310   16.70913680437274
H         1.33084545300971   -1.72247204396104   15.50398156055452
H        -0.01866529151539   -2.85387356118154   15.38619503638271
C        -0.24400951878563   -1.35399786338395   16.94271109212606
H         0.41627488786590   -0.91876697332844   17.70039362275661
C        -1.34801517142016   -2.12930858421160   17.66719328551302
H        -1.91903575100755   -1.46448339456832   18.31119248341509
H        -0.91793338826432   -2.92019776909688   18.27842597187951
H        -2.03783036138365   -2.57183287373111   16.95316647620898
C        -9.24816907781100    1.63874424728904   18.66627424496151
C       -10.05510163052909    1.53363809438737   19.80355784904894
C       -11.42924552190535    1.60478561119719   19.62508865706097
H       -12.07616233043962    1.51229505515147   20.48457937403297
C       -11.96338415748503    1.80544274328639   18.36189746202799
H       -13.03443815344478    1.87090312047829   18.24151198728142
C       -11.14298779682092    1.92542141449180   17.25119556539569
H       -11.56824313384253    2.08672445480228   16.27185322748828
C        -9.76465376196218    1.82875570559895   17.38014033015622
C        -8.82840112743184    1.88369292642087   16.23224674644662
C        -8.00240574419205    2.99818258678862   16.04830969548572
C        -7.10871914827098    3.00043244906870   14.98617815307435
H        -6.47265708908080    3.85783934081893   14.82644953831839
C        -7.00982048198906    1.91352231216006   14.14080739261652
H        -6.29549232256583    1.92058973252330   13.33127415012239
C        -7.81134507649176    0.80803424064386   14.34416486007492
H        -7.70569299703449   -0.04688805795163   13.69574868240894
C        -8.73183016168698    0.77637559997036   15.38202260577578
C        -9.40075884554892    1.39414352333851   21.12599459214191
C        -8.77580293082286    0.19340705349272   21.47963569159381
C        -8.13200548860258    0.11184076869987   22.70665818012766
H        -7.65418820238940   -0.81078363210737   22.99879779437793
C        -8.07770730842303    1.20185164390678   23.55228024397620
H        -7.55594388979715    1.12966241087114   24.49472165385433
C        -8.67419575011643    2.39100654428024   23.18320056608685
H        -8.60047262415300    3.24440960163093   23.83805988079657
C        -9.34685655906814    2.50517759154754   21.97506100105869
C        -8.64388342028322   -1.58749040499871   16.14205452275868
H        -9.22483763327484   -2.48599571457153   16.33901238603633
H        -8.15814100713871   -1.27853072908978   17.06457149572736
H        -7.86422724564537   -1.82385862209727   15.42291461303096
C        -9.55140206107924   -0.47228870369673   15.61689053768988
H       -10.30775254589856   -0.26772784036236   16.38138737482589
C       -10.28454651909470   -0.91524167160924   14.34979563279567
H       -10.88016948291838   -0.09750215318480   13.94878735562163
H       -10.94830991978646   -1.74679527484588   14.57701180679964
H        -9.58609563424951   -1.24008634245390   13.58376969283038
C        -6.67611443710827    4.58300438383494   17.47682119864687
H        -6.75299144959568    5.26908715188378   18.31789298914913
H        -6.08204276537989    5.05980153852835   16.70125153606931
H        -6.13035007933433    3.69251898467244   17.81158492447105
C        -8.06677332681821    4.20274331190698   16.96190592599785
H        -8.69911347180946    3.97120106996770   17.82518955865706
C        -8.70945115789979    5.38425944606172   16.23062987129045
H        -8.76025882797155    6.24931514338624   16.88848645358531
H        -9.71880629882303    5.12867036918983   15.91431955133814
H        -8.13152367415604    5.65235434195541   15.34926580836892
C       -10.84207325903901    4.41495363704318   22.65540144439374
H       -11.60361952295876    3.69131322131258   22.93920678077882
H       -11.33725316663702    5.31115031568843   22.28743640584897
H       -10.27427946190137    4.68296611800665   23.54191691303741
C        -9.93388540812059    3.83803020909653   21.56853657341504
H       -10.54135425490462    3.70410454300250   20.66763952099557
C        -8.80051337808125    4.80992302869673   21.23079459981784
H        -8.18400698695443    4.40949405465995   20.42958613132465
H        -8.15736885797030    4.96941390655434   22.09213230349253
H        -9.20557833227260    5.76808263415198   20.91210758013224
C        -9.69793408824036   -2.10275097974866   21.16432277043021
H        -9.72204388735982   -2.96996319785155   20.50780647975921
H       -10.71287755987194   -1.72811556853566   21.28217843809743
H        -9.33330688359776   -2.41678059879844   22.13948676368969
C        -8.79615779149455   -1.01685116949034   20.57156365063176
H        -9.21841687584114   -0.73610433966997   19.60091621854961
C        -7.38343315513351   -1.55916991247685   20.33734068524305
H        -7.38248492828504   -2.27721760355227   19.51972105976444
H        -6.99838893534933   -2.05431463087727   21.22526855784420
H        -6.69448345279070   -0.75086705405328   20.08133795587164

