35
CSD_code = HAGHAZ | q = 0 | S = 0 | Stoichiometry = C8H12Cl2F6N2O4Pt | MND = 6
Pt        9.13498109013503    4.03507732135537    1.74723806709701
Cl       10.21803995123240    3.83790418068601   -0.26667394631117
Cl        9.49972710133146    1.83257553246563    2.27717946885271
O        10.92854386270773    4.41968642407720    2.70148815160159
O        11.17172110366051    6.58592952317640    2.18856548615069
C        11.52098480847771    5.53144745085116    2.67673802604834
C        12.85250255227520    5.48411380923754    3.50954636012945
F        13.60901729526358    4.43165303973151    3.21620916776297
F        13.58444862912846    6.58209041957568    3.33760108677081
F        12.54542890555153    5.41104252625259    4.81793619362995
O         7.41531415974208    3.51784194844083    0.71704943724923
O         5.95233518161232    3.48111194174959    2.41104837130720
C         6.29179250921763    3.33172868148552    1.25512690266845
C         5.20723170828706    2.93024292273814    0.19166931110280
F         4.97778145938523    3.97089920838559   -0.62742262963946
F         4.04756141395516    2.61757008021931    0.76651144865395
F         5.58531537770318    1.90092475854487   -0.56024213686822
N         8.26557095008571    4.14532320300742    3.72396989203122
H         7.28062048237342    3.86176122629550    3.59545264996047
H         8.75225491271501    3.37435109010305    4.18834415733197
N         8.71647629328060    6.04896390626430    1.08679466238588
H         9.58162873712787    6.57408680823753    1.29479672956289
H         8.66977447253801    5.92129244607528    0.07306983307649
C         8.33820994467335    5.35990072759433    4.54071006109265
H         9.35160884606163    5.76860150181139    4.49868120134928
H         8.14058718816971    5.08474356745097    5.58372937488677
C         7.31634995270730    6.41709224260930    4.12233284736260
H         6.37599179057449    5.92297443288279    3.86996780012757
H         7.12969407320714    7.04325415147387    4.99583016324502
C         7.73622231928421    7.34502825556589    2.97847562586443
H         7.12823122808822    8.24729219701965    3.05549184951004
H         8.77791291745554    7.64503321386289    3.10822245690280
C         7.54745764450081    6.79288019716662    1.56425804755502
H         7.37539608206692    7.63507674155720    0.88332517446286
H         6.66318505542375    6.15100432204928    1.51957870708610

