47
CSD_code = HAGJIK | q = 1 | S = 0 | Stoichiometry = C20H17Cl2N2O5Zn(1+) | MND = 5
C         3.10645715696261    2.20700205647196    5.18186315624222
H         3.35440685983262    1.16621689143587    5.03355536564447
C         2.73058535451356    2.68201043274434    6.44096177233131
H         2.68825538106599    2.00123905318332    7.27560143988405
C         2.42040903153894    4.01296970163463    6.59344959960013
H         2.12719849821551    4.41172583614865    7.55288202949991
C         2.48628524339186    4.86438561242991    5.47642643876809
C         2.18059455633781    6.25560974994528    5.52717373835093
H         1.88662647087135    6.67712361460409    6.47607947330209
C         2.25346759275567    7.03060660748352    4.41661152120869
H         2.01841228837262    8.08288095265507    4.46179220705792
C         2.63941816712765    6.48069188551759    3.15950587537991
C         2.72378398289274    7.22993022569043    1.97082451656894
H         2.48872092282918    8.28363763217986    1.98788811882102
C         3.10081605221783    6.60280444536175    0.80719329272524
H         3.16729848944578    7.14049773512980   -0.12456730316762
C         3.39715614517694    5.23595338747489    0.82659745515830
H         3.68517067845425    4.70880992166602   -0.07184349797872
C         2.87597712819284    4.28880204950243    4.24829025485496
C         2.95391049733543    5.10904434835486    3.07847809810058
C         4.81555595058359    1.58391263141734   -0.31178740198414
C         4.98594862546692    1.85533110284692   -1.80844605837804
H         6.05711958236282    1.99220311118293   -2.00622913935848
H         4.64224669017513    0.96719357570505   -2.35639433377639
C         4.25040836643704    3.41503492330384   -3.44675084730227
C         3.47873298326968    4.54415399499980   -3.74751977564225
C         3.41578856121148    5.06355955609626   -5.02437309725301
H         2.81340681462342    5.93403633405567   -5.22781325426302
C         4.13657747344936    4.44874154869810   -6.03935236141133
C         4.90444704320848    3.32875886512437   -5.76875132377125
H         5.46116649379344    2.85250020674896   -6.55921335349545
C         4.95965774705683    2.81787727991272   -4.48290481059577
H         5.56508947197054    1.94555342776995   -4.29902823698874
Cl        2.57681578206988    5.29521969274069   -2.48738660415085
Cl        4.06646739017981    5.08908921968662   -7.63646396980563
N         3.17906821136156    2.98556799361147    4.12242097886818
N         3.32509640754738    4.51923132002111    1.92954239115864
O         3.95942935415031    2.29063122135734    0.29489615271205
O         5.50151544989782    0.70193949815489    0.20922904463946
O         4.24045315892884    2.99766830063171   -2.15111097028050
O         1.74199865164395    1.56557499365027    1.85512947036844
H         1.74546462544403    0.61012439644733    1.98910548411754
H         1.48371360074734    1.71021983612210    0.93593629440155
O         4.81802281695071    0.96100086045642    2.63185309255516
H         5.57185236357706    0.91721924988517    3.22776330960634
H         5.17640642521066    0.68935767793787    1.70370279699212
Zn        3.60649946117960    2.53215704164897    2.16238297072339

