87
CSD_code = HAGJOR | q = 0 | S = 0 | Stoichiometry = C39H44BrCuN2 | MND = 2
Cu       -0.00788267486752    4.88542039376000    5.28467515841444
Br       -1.77002828611816    6.24860919599805    5.02153627445233
C         4.97131807601677    0.99321883396701    6.50751187513596
C         5.73797000471186    2.26443493717226    6.21914732247150
H         5.07963169448803    2.98762969462278    5.72830993204203
C         2.45687797770204    5.39099812343234    2.81706057172461
C         1.45574926453879    5.44770700941072    0.62615111820580
H         1.24511879786637    5.98485182580473   -0.28609926409516
C         0.65496326509032    2.07132486350361    2.14750357727017
H         0.98687841671890    1.66024983508987    3.10622056536188
C         5.59810172817700    0.72333470004143    1.38135612793265
H         6.23545954422432    0.30663998981996    0.61669865401704
C         4.19394926859914    0.42572863850656    3.30678116520270
H         3.73888789581097   -0.23512373687929    4.02605919114302
C         2.38753270674001    2.20402911430219    8.64010291155608
H         3.43066998010608    2.03164613732082    8.42608943453780
C         5.62308897267023   -0.08574508641282    7.08939818578085
H         6.67470102025024   -0.01176220968024    7.31744425708525
C         5.35944819672982    2.08733500681561    1.42418757920799
H         5.81324004082660    2.74008065813930    0.69397058710778
C         1.46455221140163    3.63689172866112    5.31248674757862
C         2.18045454159857    6.05782717822593    1.63175159109388
H         2.52668839428470    7.07037657471777    1.49699873420470
C         6.23545144714377    2.90243670467019    7.51992930376665
H         5.40146454877030    3.17073825239090    8.16501404663412
H         6.79533833705991    3.80748087117948    7.29595276821516
H         6.88597241507892    2.22243248734316    8.06404275374513
C         5.01201194374735   -0.10218813831633    2.32686982469019
H         5.18878484779284   -1.16692869264380    2.30095353047227
C        -0.87330842480608    2.15369955226109    2.18749436110821
H        -1.19370424546999    2.84036948019050    2.96835093993205
H        -1.29741074046359    1.17318176138463    2.39270996815230
H        -1.26871772450518    2.50988007499482    1.24024687201924
C         3.59690313348926   -1.36201135539688    7.10258787021995
H         3.07954176680125   -2.27946268822206    7.33438517893485
C         1.23259719724974    3.45479270061959    1.96110925313990
C         2.44249127468644    7.27776994905204    4.44288319940152
H         2.29744189573021    8.02572135729749    3.66817530960709
H         2.96701329545516    7.73816357257959    5.27714088201864
H         1.46267962154305    6.95462904533686    4.79064159666584
C         3.23733218726627    6.08258067586624    3.91206361907444
H         3.38805768565667    5.38585401402548    4.74403433212176
C         1.93783467881511    2.08131337270034    9.94164214202948
H         2.63388675547969    1.80404569896943   10.71999232260525
C         0.64003972625972   -0.85296725138509    7.46458028008877
H        -0.42576140040892   -0.83279827386525    7.25036911577360
H         0.84029585148664   -0.15127115683153    8.27050888324917
H         0.90015101617971   -1.85246685846160    7.80278108351946
C         2.89848878606763   -0.31062683908189    6.52446748728362
C        -0.27242566201238    2.68107094622829    9.24436583252199
H        -1.30976820218560    2.87075581191165    9.47505043465474
C         0.98498808804686    4.16011379907607    0.79133323738792
H         0.40417353376713    3.70211555704094    0.00643106423642
C         1.13110036171720    1.11857758126254    1.04926327601478
H         0.76907798864191    1.43441493223259    0.07490479494553
H         0.75822822625683    0.11478824111069    1.24137978499913
H         2.21890292251950    1.08353740202944    1.01773745873219
C         1.42800969370679   -0.47145501994554    6.20889309512706
H         1.02266793899750    0.47576881557208    5.84313061713792
C         0.60869110056604    2.31667778346721   10.24969708437017
H         0.26242427233590    2.21995036731395   11.26768740201460
C         6.91347582092707    1.98948522575615    5.27754095597914
H         7.65909101152646    1.36275491269333    5.75936720033522
H         7.38809970980793    2.92640606625247    4.99522407141404
H         6.57578492816932    1.48851599083775    4.37311442608585
C         1.22106119469328   -1.51940217168837    5.11035154828465
H         1.69589039769904   -1.21196342491463    4.18029147252981
H         0.15775449057833   -1.64642458721928    4.92108128668047
H         1.63432277834876   -2.48068676104895    5.40602423384603
C         4.54240895423979    2.62351110442637    2.39971162355836
H         4.37385172766678    3.68720587925039    2.42456720350597
C         4.94505877517014   -1.25280737229690    7.38302607756094
H         5.47003512826717   -2.08142803442077    7.83371044086607
C         0.17031019524496    2.79969344857708    7.94223939830949
H        -0.51989266686434    3.07591486424624    7.15879043001097
N         2.91079087841968    1.94520431959203    5.63271754526647
N         2.21209879288549    3.38966875341526    4.17891837881855
C         3.06523673845099    2.36539918239421    4.36369565813438
C         3.94562313873084    1.79982625355808    3.35756119529925
C         1.93599660411163    2.71761202428946    6.23667016451568
C         1.50791995497692    2.56102713375716    7.61904652545244
C         3.60589152183289    0.86146947963918    6.23084958783548
C         1.97838278540359    4.08452860224043    2.95981689486500
C         4.61608873053597    6.53329049850761    3.42187245561239
H         5.20512516201124    5.68865168848734    3.06757340369229
H         5.15816906977269    7.00717120274912    4.23737887775679
H         4.52670700137131    7.25158778061845    2.61131563973432

