55
CSD_code = HAGKIK | q = 0 | S = 0 | Stoichiometry = C14H34CrN2O2Si2 | MND = 4
Cr       -0.60117522293484    0.39244636748629    3.34094685628068
Si        2.37898355876248    1.78155640368777    4.08512118942491
O         0.88674085671265    1.26812834037701    3.75008972704989
N        -0.26800092365227   -0.61577394646959    2.07861360698748
C        -0.03045294678335   -1.92454641292691    1.64342162230486
C         0.02493030355023   -2.85442679396372    2.89544290710397
H         0.88460474847282   -2.52202824878918    3.47861511298208
H         0.21891260677086   -3.87103149234131    2.54609075168648
C         1.34045253942450   -1.99263891203838    0.94033092868645
H         1.33205956319906   -1.36026978005156    0.05629497076326
H         1.56749084339711   -3.01398103107179    0.64485049887610
H         2.11223302306798   -1.63079178024897    1.61589794482646
C        -1.12338812903978   -2.37270726817797    0.65624487298712
H        -2.10724781396968   -2.22485498254196    1.09256143437775
H        -0.99337627719032   -3.42123510302988    0.40054112598668
H        -1.06201779580012   -1.77517819210483   -0.24974215105487
C         3.28321070996636    0.37112009953974    5.01671193761587
H         2.74928650719376    0.09958631285042    5.92339128980968
H         4.29079901190133    0.66008523516882    5.29763579508303
H         3.35331535067084   -0.52127450436039    4.39990564194809
C         3.28953472040385    2.17836677085759    2.44687012647416
H         3.25993694087287    1.33105705054456    1.76680649330569
H         4.33110804981186    2.42586738324146    2.62523302055057
H         2.83497075625592    3.02217998643133    1.93475648420234
C         2.25870337208448    3.34694964218181    5.17956984946733
H         1.71477684435616    4.14282782583396    4.67785426919901
H         3.24695110068423    3.72514453164533    5.42038916529568
H         1.74642594643065    3.13894799942766    6.11487882109134
O        -2.08905174761883    1.26811157265928    2.93157484931965
Si       -3.58115366948015    1.78159956748877    2.59603064784139
C        -4.48464877219353    0.37191038545101    1.66260228734491
H        -3.94984112886938    0.10083849843997    0.75630690635253
H        -5.49188399254858    0.66125758355970    1.38081161228747
H        -4.55559823371895   -0.52086706927340    2.27875047624704
C        -4.49283522544402    2.17681390562313    4.23403973481303
H        -4.46323630775138    1.32904697025353    4.91357891683503
H        -5.53446085439204    2.42393976632415    4.05527265929264
H        -4.03900076029481    3.02051330382040    4.74702767768484
C        -3.46038148926754    3.34792627007891    1.50297173065983
H        -2.91683580624361    4.14342846906825    2.00569260257548
H        -4.44853189037513    3.72621744426536    1.26190888066494
H        -2.94753991481667    3.14078653432173    0.56777657049139
C        -1.22701292089452   -2.85441142213808    3.78716850084139
C        -1.17183659772313   -1.92421159857292    5.03896058552664
N        -0.93436318747094   -0.61552514287449    4.60346914720234
C        -2.54272485332426   -1.99226083696467    5.74209188777032
H        -2.53445142190478   -1.35966172350519    6.62597067745729
H        -2.76967774682146   -3.01355604153490    6.03780408692659
H        -3.31449580644047   -1.63067348076788    5.06638297987435
C        -0.07892358251551   -2.37205471540974    6.02630029783697
H         0.90493356191520   -2.22426430839002    5.58995937907084
H        -0.20886918382593   -3.42052299561213    6.28229531730735
H        -0.14034042412306   -1.77427379973604    6.93211889817881
H        -2.08674567993411   -2.52227593848512    3.20393942002875
H        -1.42086060854185   -3.87095669924809    4.13676897625721

