66
CSD_code = HAGKIL | q = 0 | S = 0 | Stoichiometry = C28H30O5PRhS | MND = 6
Rh        9.91039602030081    3.16862418497075    1.38292473571415
O        11.27365311636883    1.99483678759220    0.22592135641268
O        12.53972129131825    2.94247811947901    2.06401585010673
O        13.70328961724623    1.88277523000872    0.17856921071965
O         8.71698114003651    0.55828505909505    1.88997180404948
O        11.50021597546646    0.65559617744240    5.73373054771319
P        10.53978723310686    1.95340462188251    3.22590729671271
S        12.53376791366978    1.92588477667001    1.01066702773747
C        11.38539422742177    0.36997585392099    2.86147052387866
C        12.35475033658736    0.37749035524070    1.87237890420231
C        13.02143341022015   -0.76607817601851    1.48629659976752
H        13.76111232316334   -0.69010132111734    0.70445849037015
C        12.71954401102985   -1.96670564489815    2.10760060183273
H        13.23876036892050   -2.87168300771106    1.82856911514451
C        11.72772696351185   -2.00236785568827    3.07732790870035
H        11.47191621695286   -2.94218794129286    3.54668897974943
C        11.05570976623844   -0.85077777436851    3.44815398073400
H        10.27709155040002   -0.89772644338796    4.19447471203625
C         9.04467639942636    1.29500806759192    4.05199181513843
C         8.21195930215470    0.60737758305861    3.15143383752518
C         7.00063624241575    0.08210071531731    3.57051909905914
H         6.35982261471360   -0.46090613458630    2.89300502477092
C         6.60382330319387    0.27139779959236    4.88772646826236
H         5.66198048386685   -0.14057776491564    5.21863571199588
C         7.39027631706867    0.99242592616381    5.76648854716975
H         7.05854251385583    1.15181596796797    6.78145969191329
C         8.60580672205073    1.51248196318098    5.34442327248287
H         9.21566821519423    2.08607812351912    6.02624170038841
C         7.99380942691663   -0.10224532599031    0.87926035406071
H         7.87640479469471   -1.16711239392818    1.10696081456956
H         8.58824542254949    0.01418910217852   -0.02548867810829
H         7.00840994159163    0.35191440782624    0.73268331378879
C        11.45751919098153    2.70780783074954    4.61102800337725
C        11.85145824389452    1.96905611327629    5.73475123543395
C        12.54460415521375    2.59749174078172    6.76278201980383
H        12.85870949125892    2.04337001856208    7.63379521915414
C        12.84602802319246    3.94639075242572    6.67476985439055
H        13.38756598613353    4.41895827849824    7.48114839284199
C        12.46929222949236    4.67800032785092    5.56357402442446
H        12.71853179901243    5.72573152191882    5.49339532724102
C        11.78309623587354    4.05344655166528    4.53733493851770
H        11.52555392319932    4.58931023477378    3.63656424209357
C        11.91881317223180   -0.16392354492537    6.79591587973152
H        13.00944517969816   -0.18108337575241    6.88579623778947
H        11.56501527695371   -1.16497772671890    6.55388150307327
H        11.47876611519540    0.15323976475734    7.74753610949580
C         8.95820904385235    4.63840152479473    2.52972060847834
H         9.15478027857125    4.54376674693760    3.59877521076716
C         7.98864021842896    3.77545349072097    1.99385312899485
H         7.55302338307530    3.05522477310328    2.68497138791240
C         7.05570757431925    4.17052664283347    0.86362050768081
H         6.09210773260703    3.67852810620430    1.01101168404354
H         6.87557691668213    5.24531253946004    0.91347463771942
C         7.61278052499776    3.77920522602751   -0.51626880466385
H         7.25569772051127    4.47727497596425   -1.28142578757706
H         7.24220558693992    2.78798045498701   -0.78424431602488
C         9.12338994689692    3.73802621522579   -0.54036590380260
H         9.54366733955955    3.03196273915707   -1.25522630269047
C         9.94221518151267    4.75565571630372   -0.08739046311762
H        10.97412437038873    4.77046910245214   -0.43777906013921
C         9.42059186101709    6.06435906724259    0.46355479496691
H        10.11610146687155    6.86429969160029    0.20367885176102
H         8.46647492024755    6.29691043102890   -0.01182987461695
C         9.26253883422590    6.02208971111034    1.99583697561331
H         8.47526733996421    6.71520063260119    2.31396596489871
H        10.19378755533000    6.36036268557910    2.45572515379202

