62
CSD_code = HAGTAL | q = 0 | S = 0 | Stoichiometry = C28H27Cl3NP2Re | MND = 6
Re        0.70231154731272    2.70274792169173    5.34315822981064
Cl        1.48973577305350    3.59912053675323    7.30195121217842
Cl       -1.47455877817395    2.19109485518297    6.10035392769263
Cl        2.65822846105196    2.86576428331196    4.02871396250052
P         0.14236469867400    4.86981772182185    4.58873837638175
P        -0.17986828140230    2.01685179377551    3.19113360051220
N         1.26527708336482    0.96709316739526    6.04002524109309
C         1.63260118909390    0.04461611495427    6.62090076086388
C         2.07725070293957   -1.12515279084202    7.32057899556483
H         1.26088472299165   -1.84407165793757    7.39209385095827
H         2.39755964745031   -0.84570957188825    8.32420401371377
H         2.91469742606052   -1.57863694095575    6.79012541763026
C        -0.79107010492148    6.05182429495795    5.60061180885861
C        -0.88672333376839    7.38445016791305    5.20828892790195
H        -0.39023166513032    7.71767914916921    4.30659476276891
C        -1.60301505029506    8.27909147405315    5.97972371372268
H        -1.67556027926744    9.31359148296391    5.67614770860034
C        -2.22211797706441    7.85221564669548    7.14469806326040
H        -2.77668361627106    8.55666182268147    7.74744153551427
C        -2.12470908150012    6.52853567231900    7.53819492694385
H        -2.60280483699000    6.19697601982349    8.44792976529083
C        -1.40969769974453    5.62674797972491    6.76950676951830
H        -1.32773713773188    4.59282237376047    7.07342529416561
C         1.53187880992656    5.90064049177815    4.03797837632775
C         2.47411669506495    6.19252842045289    5.02255234861143
H         2.33339089464505    5.79293227798228    6.01920554277792
C         3.57950430026707    6.96371930910821    4.72352474638440
H         4.30845814249145    7.18236045715999    5.48986976505974
C         3.75533118896933    7.44917566977010    3.43716444398475
H         4.62103967512028    8.04953654313555    3.19852235067908
C         2.82478272843266    7.15797374728173    2.45505083833119
H         2.96420297850023    7.53131764248332    1.45041194201697
C         1.71471310668753    6.38455095086560    2.74905372290937
H         1.00220973216081    6.16591685352541    1.96685595519299
C         0.73332561419037    0.91204048352923    2.07084171451579
C         0.35275803705771    0.78858514585789    0.73832320573493
H        -0.47002598448177    1.37362168184185    0.35225284038669
C         1.02261604594543   -0.09073735387393   -0.09157588773238
H         0.73102806347428   -0.17978071054284   -1.12818920728771
C         2.06389118302849   -0.85935951930378    0.40448917554702
H         2.58636109801389   -1.54313811463707   -0.24819124995356
C         2.43055089808711   -0.75360003563822    1.73571296801379
H         3.23899904246172   -1.35607597317217    2.12316602893189
C         1.76504242154679    0.12715778429562    2.56964245504467
H         2.05136694840639    0.23010015236638    3.60685604712734
C        -1.79861802092585    1.19091773352835    3.15092512114914
C        -2.96509934036295    1.71352931977520    2.61275645364051
H        -2.97858884730290    2.69549188718142    2.16348441228359
C        -4.13439673758146    0.97219315377801    2.65770895101541
H        -5.04296619140103    1.38264576794167    2.24127148916006
C        -4.14573132349213   -0.28354669146754    3.23784731142206
H        -5.06244782359415   -0.85333567462047    3.27303413245399
C        -2.98261433169820   -0.80644237787979    3.78271644347507
H        -2.99267415530828   -1.78286599284181    4.24415467285560
C        -1.81605417992965   -0.07136909174659    3.74076860701191
H        -0.90036368079089   -0.45291469532716    4.17642109000417
C        -0.37327904576886    3.57263875447396    2.21339777379480
H        -0.99509068733216    3.40242524372258    1.33036369023077
H         0.63904482464452    3.83681456533473    1.88759832655152
C        -0.95108529329883    4.66330918527694    3.11506238436609
H        -1.08636737784869    5.61275562286727    2.58883476627498
H        -1.92054281773434    4.34895586841067    3.51929538625955

