60
CSD_code = HAGXOE | q = 0 | S = 0 | Stoichiometry = C22H32ClIrN2OSi | MND = 6
Ir       10.03145074919544    6.39046759002568    7.58229603644935
H        11.01342335389255    5.24520895185674    7.82517729258292
Cl       10.29129870118554    7.23325137735812    9.83928715714000
C         9.72766648030720    5.71553971546878    5.73082710335398
C         9.32705328994273    5.39271762094630    4.63231124628596
Si        8.67506454957855    4.95040649210715    2.95472158793532
C         7.39303981490053    6.33246352254464    2.53344671484826
H         7.90493790867468    7.28566825409607    2.70928863277196
C         6.93900837049015    6.32477844455796    1.07560110845400
H         6.28398866188421    7.17331810588033    0.87494046400318
H         6.38962499706710    5.41627733268769    0.84256851277023
H         7.79104910651896    6.39073623590239    0.40356316244686
C         6.18016676715074    6.30197215924638    3.45772167801081
H         5.52967404618123    7.15751851800024    3.27399053217115
H         6.49092915448994    6.32803381282115    4.50010302986390
H         5.59602462640746    5.39948350411448    3.29509672963309
C        10.12988770474385    5.03178622584885    1.70809923513439
H         9.77627814687375    4.80129284712913    0.69737919674523
C        10.73781442832435    6.43141062798207    1.68591699629645
H        11.57488305572243    6.47589067360507    0.98995443367796
H        11.10301680786911    6.69435803138920    2.67614381062957
H        10.00542527724024    7.17518360752594    1.38178788863804
C        11.21021724972081    4.01628871499479    2.06685276238890
H        12.05421079949262    4.09666756691432    1.38257865239312
H        10.82779130305365    3.00030635385508    2.01190919436227
H        11.57005157818387    4.19320331396735    3.07763997267979
C         7.97646606997820    3.16010739308003    3.07334733014563
H         8.84037875442941    2.48811141348271    3.06057047003717
C         7.08046641259349    2.77295695670936    1.89937348607172
H         6.81415670705530    1.71706608921890    1.95257698535021
H         7.58229124700727    2.94738585106363    0.94994517259446
H         6.15681526376706    3.34834319973649    1.91408586280011
C         7.25295935781810    2.91349126878953    4.39446659223913
H         6.93905363462934    1.87255768124172    4.46975154351892
H         6.36691655889487    3.53868357160711    4.47524513298469
H         7.90787821850332    3.13801411472447    5.23260630479309
C        11.43576153823770    7.50243347646258    7.10937173177743
O        12.29342018072957    8.23107982788128    6.90519175751168
N         8.47453389614761    7.97729554251056    7.23337092121319
C         8.15803268225504    8.40949856769254    6.01480877505472
H         8.70082372193480    7.96424956018201    5.19254222678527
C         7.17931314297292    9.36094766214427    5.79031989593282
H         6.96148212405296    9.67816855577893    4.78306251630502
C         6.49747556260654    9.89117272376728    6.87461634879747
H         5.72938414581294   10.63739381861574    6.73519994818299
C         6.83205588770242    9.44411878711978    8.14161893421248
H         6.33820761967488    9.82828292693431    9.02017251748383
C         7.82634574945577    8.48886847801128    8.27303123559215
H         8.13652584020978    8.13997836518097    9.24977451746468
N         8.44350008403483    5.20408369074156    8.27002754743277
C         7.32430396121347    5.05149261500979    7.55854871969078
H         7.33338867840398    5.44235487345158    6.54995152025318
C         6.20267954841013    4.40654301311680    8.04564183169555
H         5.32699654495329    4.31532274260306    7.42288909905205
C         6.22967510459695    3.88568725313387    9.32973554617294
H         5.37023821132557    3.37837829634932    9.74120966699765
C         7.39433076056638    4.02891946397043   10.06461519608222
H         7.47463014721659    3.63677673982884   11.06586881212381
C         8.47264238187931    4.68830184456812    9.50005415397806
H         9.38449333180847    4.82660403447555   10.06310456796181

