36
CSD_code = HAHGUU | q = 0 | S = 0 | Stoichiometry = C15H15Cl2NOPdS | MND = 4
Pd       -0.43356168690071    1.73348996828375    3.18137762560733
Cl       -0.68720721729990    2.55123198002149    1.06070317341843
Cl       -0.06499727528972    0.82362928853058    5.24692623647952
S        -1.83128131539222    0.10717885757566    2.71326442611022
O        -3.13927924929957    0.63119983427218    3.06455053108775
N         0.66719970190609    3.27473023605722    3.66447329153879
C         0.05858029270413    4.32709485979928    4.22577751630584
C        -1.34695061801978    4.30383259770321    4.42988412705883
H        -1.92283648925503    3.41656134865923    4.11816592101073
C        -1.96960931690120    5.37218395563098    5.00585163635823
H        -3.03714425189391    5.35460316438436    5.16317066433375
C        -1.23645194618677    6.51016936932853    5.40457992263378
H        -1.75908084619236    7.33855915414133    5.85801027969678
C         0.11163728499838    6.56550751761392    5.21983282097146
H         0.68046270230493    7.43281768714878    5.52030781392243
C         0.80445784846010    5.48081574380751    4.62617602064143
C         2.18144411558492    5.48101203067934    4.41406167308675
H         2.77073724929446    6.33804161062673    4.70785977725473
C         2.80165146048180    4.38118735049536    3.82599792911737
C         4.19610854900792    4.31554636201457    3.58065518543941
H         4.80571933500041    5.16063803398625    3.86398865322056
C         4.74852115000270    3.21344657988408    3.00229506228860
H         5.81095051372512    3.16908989577424    2.81724874342768
C         3.94221189728257    2.11437323052346    2.63695449291769
H         4.40651370189086    1.25390838461263    2.17981136469611
C         2.59686504559207    2.13311753970241    2.85596799950941
H         1.95884538769231    1.28302150558837    2.57561359328767
C         1.98732775782679    3.26479442857604    3.45497400264776
C        -1.92635135101397   -0.51080692400412    1.00514355735657
H        -2.77310008707824   -1.18250609474538    0.92480787843609
H        -0.99223175723409   -1.01249656997215    0.77595111705481
H        -2.05764773023031    0.34839174223549    0.35484542838580
C        -1.64851095407685   -1.50040106708671    3.54458724220701
H        -1.60872724784448   -1.31152840638564    4.61273501920405
H        -0.71898826971357   -1.94989998015527    3.21212079055660
H        -2.50477638393719   -2.11733521530549    3.29782848273439

