34
CSD_code = HAHHII | q = 0 | S = 0 | Stoichiometry = C9H16N6NiS2 | MND = 4
Ni        2.47166405986398    3.75951017171758    7.06339386092811
S         4.13396133976359    3.63696266519994    8.43404260627090
S         2.86524541320586    1.89016246645853    5.93140924538845
N         3.08604479942410    6.11489901121793    8.50370613886501
N         2.07123451600480    5.50468500844843    7.82862346747227
N         5.08133028447076    5.78648260571413    9.59709754693042
N         1.30145555535629    3.83482901141867    5.56502008878875
N         0.55975422072172    4.72617004837497    4.85425114763503
N         1.77928866090637    2.68331383315014    3.57796640916726
C         4.06353663279382    5.33040325316266    8.85276689867013
C         1.04162384678887    6.24363684628877    7.57454198814627
C         5.22048187147891    7.15073339841067   10.03104643048862
C         1.03796193591474    7.69718427867919    7.92168167616147
C        -0.19952993843758    5.63882447656015    6.99404482665650
C         1.91877263381738    2.87380336444287    4.89325316842265
C        -0.13762624301134    5.58686844350403    5.48006853503926
C         2.48814745014511    1.69308070839817    2.81693484779388
C        -0.92521404811911    6.58426913345768    4.70227670108623
H         5.82001846110271    5.13261450407990    9.80195863398399
H         1.23391140626519    3.38342319531863    3.09230537142102
H         5.41458725238317    7.18693093198964   11.10420878402561
H         4.28955478222363    7.66645200944642    9.81128649754671
H         6.04061598262198    7.64838455527796    9.50647807896233
H         0.23215746617356    8.22241147302128    7.41749383601860
H         0.91672734517830    7.80952554756453    8.99933661880440
H         1.99782455776781    8.13773921291157    7.65904873734398
H        -1.07077357721971    6.20937844970561    7.31182969594200
H        -0.27955413906898    4.60321013290484    7.35110369817793
H         3.23210631631827    2.15676425659365    2.16389017509938
H         2.99449051007805    1.02523270116309    3.51303933417220
H         1.79036412147110    1.11599599629533    2.20805933807726
H        -0.80383297441822    6.41130285563519    3.63683551989181
H        -0.58684694186560    7.59273732835534    4.93887671659938
H        -1.98148356009714    6.51387812513415    4.95992338002383

