48
CSD_code = HAHHOO | q = 0 | S = 0 | Stoichiometry = C19H20N6NiS2 | MND = 4
Ni        0.17016185747026    3.94733304768193    6.27247005226132
S         0.51133003805402    1.82606684953276    6.35786054316522
C         0.72259529888193    1.65581608434933    4.63098244687925
N         0.46306098170800    2.61025750621908    3.79042118336965
N        -0.04583125232360    3.74713155428549    4.34683763510456
C        -0.40893841449698    4.66483182711830    3.51112772364794
C        -1.14676700530125    5.87417091343050    3.99555904512872
C        -0.19600698885025    6.96741501699545    4.44279650577638
N         0.41923911418198    6.92343811420128    5.55589393846861
N         0.25159979602042    5.84362719206975    6.36454023608793
C         0.79894751255181    5.89166488078664    7.57493215212555
S         0.55075959763581    4.41052542979277    8.39815100959086
N         1.16569566383020    0.43504813714290    4.25628063459327
C         1.40674535447834   -0.09061131852606    2.99403200955298
C         1.87152171195261   -1.40392079400312    2.91409466027866
C         2.12714086469900   -1.97921612538667    1.68522914092159
C         1.92394560998438   -1.25778158106662    0.51998776320879
C         1.46232153228048    0.04547098923613    0.59716488846758
C         1.20337305453322    0.63214857546937    1.82173939151810
C        -0.16765276801213    4.50685432547689    2.04589193060045
C         0.01891585704457    8.13410612074714    3.54258339600479
N         1.42216320968311    7.00468886625485    8.00158885205537
C         2.06807062726029    7.32737781007415    9.19051593529884
C         2.68645548871781    8.57653786082055    9.25971601687796
C         3.34029155208154    8.96970754710055   10.41005464231073
C         3.38784851684383    8.12520439773132   11.50740254914891
C         2.77376321569412    6.88649090755004   11.44133282373476
C         2.11439664509018    6.48179674434105   10.29497572764604
H         1.32723466001691   -0.19483497921219    5.03201724099562
H         1.44614096512164    7.71965068471594    7.27684498477240
H        -1.74562388752222    5.58709871428238    4.87052464838100
H        -1.79788253395539    6.24875716182193    3.20748517699246
H         2.03015255673912   -1.96947685005050    3.82170200991027
H         2.48615038479228   -2.99660837933608    1.63675669622229
H         2.12362366182704   -1.70937063316097   -0.43985281694100
H         1.30096965740810    0.61370710418608   -0.30731584315078
H         0.84315122998542    1.64340893187911    1.89368480180651
H         0.86136424527390    4.19422162274053    1.87439196009217
H        -0.37083727075727    5.42778572970448    1.50785887057259
H        -0.81225652777465    3.71686715050664    1.65920125965876
H         0.70260228945586    8.84309846421651    4.00054298610366
H        -0.92865824741363    8.63056411459783    3.33615376331705
H         0.43780682934297    7.79964819025257    2.59385351837338
H         2.65011982997523    9.23626415240493    8.40358845924416
H         3.81473460748589    9.93904390376883   10.44975751029836
H         3.89956740497210    8.43224293245747   12.40666839031381
H         2.80460730963061    6.22236682084345   12.29186302175451
H         1.63988616370380    5.51588428395365   10.26001052745950

