58
CSD_code = HAHJIK | q = 1 | S = 0 | Stoichiometry = C24H22N8OReS2(1+) | MND = 5
Re        2.93219636050046   11.60133716942810    6.63476696895176
O         4.35635499052102   11.43978609226410    7.48932110361962
S         2.72438536100055   12.61881206957745    4.55301844862095
C         2.50668984122806   14.30038625232046    5.10679383462364
N         2.34399833063184   14.56066580907631    6.35083214780069
N         2.41017798882793   13.52262630029262    7.23573885606564
C         2.12960409597607   13.88338400323157    8.48841736744391
C         2.25879305342124   13.02647818185505    9.60872077429408
C         1.96377970429404   13.49444472092999   10.85619209507400
C         1.53825192143772   14.82766746571538   11.04084764569202
C         1.44199714884126   15.63756979005129    9.95028941458111
N         1.72807309269788   15.16275266893254    8.72241601014082
N         2.49671954593540   15.21529627348295    4.12356868757210
C         2.43174260141014   16.60973749681638    4.22093686226273
C         2.11519008883184   17.32555374377911    3.06842739284837
C         2.04504557064828   18.70467604591204    3.10582147402441
C         2.29381173076131   19.38432054455563    4.28728544574751
C         2.62626242617141   18.67440407162050    5.42829676532901
C         2.69693194194327   17.29300424203363    5.40227767050072
S         0.86473200690130   10.82569650802598    7.37147056059655
C         0.95845564013067    9.16996485397213    6.71546906164393
N         1.93038074743928    8.81936646535023    5.95865129199304
N         2.91029520790272    9.73756605680649    5.70799608844548
C         3.88323102272965    9.26894308789693    4.92698669724214
C         5.03371824662809   10.00796735519587    4.55514233016107
C         5.97913553012465    9.43335826243869    3.75697510384687
C         5.82787486293734    8.10414686478823    3.30559347479324
C         4.72747605567620    7.40577811096802    3.69870480820516
N         3.79398317115820    7.98696397414079    4.47753981531963
N        -0.05827393425025    8.37017107039243    7.07995498084426
C        -0.29162976853581    7.03672345060514    6.72318895530074
C        -1.11697988174984    6.27579619421727    7.54759702402694
C        -1.38254112811849    4.95646327363635    7.23509637621272
C        -0.83544328161749    4.38448842874007    6.09802902828817
C        -0.03295650929035    5.14676077452470    5.26648434323829
C         0.23979083895758    6.46812863352657    5.57139187718548
H         1.66832418224030   15.74544678670685    7.88842084638243
H         2.50652187762473   14.84463529850988    3.18233975469560
H         2.97789275554104    7.47828209767289    4.81468403901582
H        -0.68386650473387    8.75125476969244    7.77746635902262
H         2.62106219169040   12.02094729351580    9.45226410941266
H         2.06787759197972   12.84811276106323   11.71305607774560
H         1.30917693182288   15.20025368951228   12.02399517375438
H         1.14170924261673   16.67198980613842   10.01043076397931
H         1.92515853474699   16.79727432166210    2.14525745312893
H         1.79685854337715   19.25023173444363    2.20873378023269
H         2.23762369027942   20.46089828156131    4.31535043366764
H         2.84070915639438   19.19967899733694    6.34674388470971
H         2.98773694213287   16.74160950430189    6.28100388388763
H         5.15294954355652   11.01144153660834    4.93598700389653
H         6.85731660589126    9.99172739911145    3.47453354541551
H         6.57389835237202    7.64829966277720    2.67838333174388
H         4.54933101239267    6.38009690266079    3.41581850347558
H        -1.54659457518399    6.72104141052556    8.43332893815998
H        -2.01933830047297    4.37348170005737    7.88209055870984
H        -1.04144886589555    3.35376765552236    5.85691766598085
H         0.37803682471300    4.71216594600968    4.36768027918331
H         0.83420964495866    7.07377613758146    4.90747283124534

