165
CSD_code = HAHLOT | q = 1 | S = 0 | Stoichiometry = C84H74N4P2Rh(1+) | MND = 6
Rh        6.63262539078744    3.03003312659463   -0.00004862749603
P         5.76398374373164    1.39987024140196    1.38118867497622
N         6.55675270325315    1.67801581296149   -1.53657485212938
N         8.55810399897900    2.41052359020927    0.30945355660890
C         5.46665277234607    1.51574835205762   -2.33107185121408
C         5.73124786478967    0.51115203415346   -3.32342766575523
C         6.99676079634470    0.05377763126522   -3.09491781244867
C         7.50730978638377    0.79020991357746   -1.95273938815747
C         8.76485101404136    0.63074391486277   -1.36162368402010
C         9.26108235591891    1.42479276150822   -0.32302553292622
C        10.59455723725739    1.35733339646333    0.24669027130550
C        10.66267558051346    2.32918278547566    1.20282100772581
C         9.36954625556774    2.95201677588066    1.25595743802504
C         4.24900284012026    2.15814470820382   -2.19784747962411
H         3.48370943434479    1.88175108949194   -2.90560911350488
C         7.68162195725755   -0.97823601558224   -3.92098521884726
H         7.00964061678750   -1.32693411921923   -4.70082447997610
H         7.98949645572733   -1.83403329956801   -3.32450745785436
H         8.56788827047882   -0.56636245041075   -4.39904730866875
C        11.71601909523553    0.44099315036963   -0.09810228199271
H        12.56616290566667    0.64717038823123    0.54673669691877
H        12.02986466024893    0.56673900346081   -1.13213209921110
H        11.43048113657285   -0.59951241052021    0.03961088813183
C         4.77920663348359    0.11599085837610   -4.40355532037528
H         3.75617688495160    0.12573451162507   -4.02189987651434
H         4.98989380340018   -0.90331832886050   -4.73020786575804
C         4.88564877815827    1.05904980362600   -5.60420806665133
H         4.17850083748078    0.76892880208269   -6.37734460711574
H         5.88903468332758    1.02362592740509   -6.02139433526159
H         4.67246615079451    2.08357979231806   -5.30692033880620
C        11.82324944815993    2.70206641830442    2.06633043308182
H        11.78402084916462    3.76918679869239    2.29546390634855
H        12.75385711707788    2.52203032684154    1.52490786164134
C        11.84138729353348    1.90124699557815    3.37023341632366
H        12.68892745102311    2.19790206922377    3.98333250440967
H        11.92385360611612    0.83788792798472    3.15804646928499
H        10.92877179941705    2.07182312786750    3.93735177387181
C         9.60850102418638   -0.49587585969179   -1.82841286917229
C        10.51834452629356   -0.34815116420805   -2.86825513921675
H        10.61313235929551    0.61321837889582   -3.35268645776089
C        11.28973801118856   -1.42189626396130   -3.27750913260789
H        11.99452984260897   -1.30012130010174   -4.08656961919842
C        11.16017296656513   -2.65064491946327   -2.65200517934188
H        11.76248231232439   -3.48680748854149   -2.97238143061414
C        10.25601703254412   -2.80370161337086   -1.61420173297985
H        10.15223345774108   -3.76002724269833   -1.12341351332428
C         9.48274562659044   -1.73174077048948   -1.20287608956533
H         8.77690154769238   -1.84370833060898   -0.39138963972468
C         4.88100033020336    2.06762419882729    2.82727798016861
C         3.50957245292572    2.28518744187861    2.73448549193653
H         2.98055092317956    1.99144463845338    1.83884613412364
C         2.82755014817146    2.86623996866420    3.78726126863188
H         1.75957528166451    3.01374242009284    3.71626529916496
C         3.50935373226160    3.25259015696294    4.93021147860859
H         2.97591716313359    3.70761201351346    5.75144220329680
C         4.87705376838300    3.05382784417352    5.01774035471484
H         5.41072185704534    3.35405531209341    5.90678770313866
C         5.56346965387456    2.46617544411039    3.97124493972472
H         6.62921565748568    2.31457330171199    4.04990501805503
C         6.86175756395152    0.07191153427782    1.97048432876287
C         6.60384728825384   -1.25423806002766    1.63701030825206
H         5.71890646544168   -1.50207179583838    1.06894312594840
C         7.47763679015160   -2.25186241357063    2.03133099245497
H         7.26874976405036   -3.27894766816927    1.77062813031337
C         8.61508512071296   -1.93703579894486    2.75619728114863
H         9.29680758516513   -2.71695761354155    3.05951994891957
C         8.87771790776266   -0.61791739122641    3.08711176363953
H         9.76334878560484   -0.36884440798541    3.65126719952075
C         8.01078674773276    0.38339947238643    2.69197049328918
H         8.23635228527186    1.41218454740091    2.93187446418910
C         4.50177211156441    0.49983081113977    0.57417191703820
C         3.66710679975784   -0.00580439210440   -0.14368952716029
C         2.69150738247354   -0.60591367325815   -0.96506814766112
C         1.36149159438437   -0.18616891687775   -0.89755780957899
H         1.08077184180345    0.57877478373457   -0.18839855810666
C         0.42062373467170   -0.75136653325715   -1.73634562026712
H        -0.60757375875321   -0.42614051077537   -1.68477446258139
C         0.79267197081641   -1.73349719536364   -2.64174782519398
H         0.05346430036966   -2.17235913391818   -3.29414424706998
C         2.11220492320632   -2.15411489221492   -2.70845195704838
H         2.39966574291993   -2.91979694737013   -3.41314216258164
C         3.06349339767519   -1.59613965586253   -1.87662406151579
H         4.09559796948196   -1.91094171573473   -1.92560970894869
P         7.50133698308682    4.66028268777692   -1.38122379024810
N         6.70855209692345    4.38207862882642    1.53650003026736
N         4.70719049147882    3.64961074901486   -0.30951056176546
C         7.79861161522284    4.54429252420107    2.33107027503555
C         7.53401762916873    5.54889529518830    3.32342401851514
C         6.26854930541810    6.00634689665351    3.09483516009462
C         5.75802272922848    5.26993902188619    1.95262748360781
C         4.50050458639496    5.42946431533111    1.36147967885106
C         4.00425057269519    4.63540829985522    0.32290003475557
C         2.67077816837282    4.70286895156696   -0.24681980424950
C         2.60261744802625    3.73092008929421   -1.20284793288877
C         3.89573226892432    3.10805665324688   -1.25596029349834
C         9.01624694677468    3.90186529054214    2.19789217177455
H         9.78150787162465    4.17820373782292    2.90571076133568
C         5.58370091725764    7.03840834373059    3.92085827837988
H         6.25565126414276    7.38706930926369    4.70074118762714
H         5.27591324517918    7.89422608917495    3.32436428693507
H         4.69737998881349    6.62659190667200    4.39886699945006
C         1.54935927951593    5.61930015495747    0.09786828829208
H         0.69926587570263    5.41320089894907   -0.54706218863018
H         1.23539818077830    5.49356058682478    1.13186459594823
H         1.83499681832030    6.65978370178042   -0.03979860141289
C         8.48602421822931    5.94400825192471    4.40360455541719
H         9.50906899199824    5.93424510177384    4.02198997409952
H         8.27535611495297    6.96331676922076    4.73027296776830
C         8.37952423251081    5.00093803566838    5.60424283320224
H         9.08666047250443    5.29102900328998    6.37740160489933
H         7.37612942857664    5.03638434187772    6.02140468669080
H         8.59268833763159    3.97640745098086    5.30694566050541
C         1.44201458774714    3.35792887204648   -2.06627008401695
H         1.48117083760036    2.29075081894242   -2.29515449685367
H         0.51142445438109    3.53815485419322   -1.52488156336296
C         1.42391918104547    4.15844276570966   -3.37036029021654
H         0.57637238078473    3.86167142579529   -3.98339412657118
H         1.34148529202209    5.22185403589339   -3.15842419814412
H         2.33653223826535    3.98770609989113   -3.93743375026297
C         3.65688459953635    6.55611371622478    1.82825344763434
C         2.74698308438871    6.40840136528596    2.86804737016568
H         2.65213251857274    5.44702444058773    3.35245208258945
C         1.97557576254172    7.48215528654231    3.27725458072983
H         1.27072283953969    7.36038506341161    4.08626269240830
C         2.10519064691862    8.71090214450598    2.65175699103996
H         1.50287581830534    9.54707351927095    2.97210040006818
C         3.00941657109926    8.86395100910643    1.61401311979773
H         3.11325177776935    9.82027978386512    1.12324181668019
C         3.78270073272312    7.79198143592521    1.20273404732099
H         4.48859045808881    7.90393845292458    0.39128617017338
C         8.38441668635055    3.99250537072845   -2.82724967925524
C         9.75586364862103    3.77507605048877   -2.73441622858367
H        10.28484087632196    4.06893591341186   -1.83878969175737
C        10.43796853262552    3.19404793316999   -3.78715458265927
H        11.50595424743678    3.04664027357276   -3.71612293861650
C         9.75623142239909    2.80758623696718   -4.93010720088579
H        10.28972862518751    2.35255054278250   -5.75129202909427
C         8.38851476175516    3.00621592101077   -5.01767994821684
H         7.85489333301438    2.70586328724944   -5.90671438117761
C         7.70201669300740    3.59384511244276   -3.97122362019083
H         6.63625777158397    3.74533989966113   -4.04991745267041
C         6.40349679678357    5.98813998206621   -1.97063237724464
C         6.66130084968514    7.31431841800875   -1.63719886607240
H         7.54622738125426    7.56223953579730   -1.06914829699088
C         5.78744970925243    8.31186357557093   -2.03157854714417
H         5.99627723043575    9.33897843492793   -1.77094311436121
C         4.65004905051727    7.99693144218463   -2.75647274959356
H         3.96827726051402    8.77679443843698   -3.05983656223529
C         4.38753051159210    6.67778537141572   -3.08736634665291
H         3.50191357548142    6.42862322666134   -3.65150392678882
C         5.25452166979940    5.67654495977797   -2.69216103919759
H         5.02902285352732    4.64773283908863   -2.93201223943273
C         8.76346335907528    5.56033318343843   -0.57412769541936
C         9.59802492910856    6.06596179418574    0.14390104998664
C        10.57344084056671    6.66604117218024    0.96546448621526
C        11.90349738659667    6.24645563670171    0.89803080377084
H        12.18428617973064    5.48138463865413    0.18903439738237
C        12.84423867416085    6.81172988410762    1.73689294780907
H        13.87236361581166    6.48612736571247    1.68585577750313
C        12.47201262041534    7.79375572288516    2.64232991765008
H        13.21104605562467    8.23241545325247    3.29506277264709
C        11.15244415275319    8.21421058947684    2.70897110166843
H        10.86490122806229    8.97996842698862    3.41354364391095
C        10.20130613961882    7.65624755746960    1.87698309480711
H         9.16923527220989    7.97123762101626    1.92562038283661

