157
CSD_code = HAHMAG | q = 0 | S = 0 | Stoichiometry = C76H74N4P2Ru | MND = 6
Ru        0.00006822488236    0.00013069117189   -0.00003749412665
P         1.36447783550077    1.78349152865090   -0.47595943855655
N         0.41823630819747   -0.71398177169869   -1.86960556295655
N         1.63085174839183   -0.99489738444391    0.73487887040114
C        -0.30335853024791   -0.47576550680670   -2.99355267674648
C         0.31184433198015   -1.14931638718004   -4.11524084239144
C         1.41314450037935   -1.79037740128217   -3.63102353138469
C         1.45502486570411   -1.52199919097319   -2.21085874577652
C         2.39728039642682   -2.03696132100695   -1.33165362777820
H         3.15337435329173   -2.68298100941510   -1.75385140878971
C         2.47669729692025   -1.78786853506001    0.03041603273939
C         3.50871914341034   -2.29664976033419    0.90631034883095
C         3.26481451980340   -1.77199589125531    2.14035559470181
C         2.07184853753579   -0.96318213435001    2.01716561107681
C         1.46520563709353   -0.27941763766862    3.05995696586119
H         1.94455733859998   -0.34529966525668    4.02526145821026
C        -0.17466129805801   -1.08716002193872   -5.52546846966724
H        -1.26273625421539   -1.18976319117269   -5.54395079938418
H         0.24550321496173   -1.91851514083202   -6.09495781085891
C         0.22320451930737    0.23285265161018   -6.19013191628893
H        -0.14060355387896    0.27155120272004   -7.21520596848622
H         1.30658646535063    0.33641775229815   -6.20310282626647
H        -0.19272375722430    1.07255537167598   -5.63847640531462
C         2.38287908628794   -2.64920548638187   -4.37561732441580
H         3.38480474375653   -2.52453929496435   -3.95826151257824
H         2.42019228674522   -2.33565486318734   -5.42122817157152
C         1.98611864205389   -4.12588767968178   -4.30952476475316
H         2.71107390880558   -4.74090989283713   -4.83920237891699
H         1.00901445073809   -4.27288273369109   -4.76498119449304
H         1.93671404347059   -4.46129288761334   -3.27575619461065
C         4.59075683897872   -3.24039964240553    0.49661954178031
H         5.43069048245650   -3.15855879065614    1.19040603531832
H         4.95557233486951   -2.98017212198802   -0.50022761682377
C         4.08964427492580   -4.68611208174275    0.48903322046571
H         4.88153897735045   -5.36455656783447    0.17709364311384
H         3.24989919339982   -4.79155536903087   -0.19418073550635
H         3.75733836392639   -4.97266028954360    1.48413327811820
C         4.03828098656293   -1.96907042934122    3.40195123101781
H         4.09190371891495   -1.02446049528779    3.94963193707609
H         5.06043457530354   -2.26952108645559    3.15977806801980
C         3.40373745306816   -3.03650357600760    4.29503759194650
H         3.97192462323003   -3.15103039412649    5.21629285278292
H         3.38027878538385   -3.99348492465925    3.77920725964291
H         2.38061666995567   -2.76463393593183    4.54337630819104
C         2.08332379205443    2.85123062339104    0.82038034455745
C         3.45651726289554    3.05094559865577    0.91583712630939
H         4.11438589250549    2.59363006346527    0.19050070708216
C         3.97845892657940    3.82820243139001    1.93388117549179
H         5.04663731808072    3.97870072244729    1.99896595348406
C         3.13838755607641    4.41247001418536    2.86676327422538
H         3.54920165482759    5.01735962165103    3.66207531918795
C         1.77070699262196    4.21265115119513    2.78063378489744
H         1.11125761232227    4.66093272541212    3.50923294789037
C         1.24520016128974    3.43331265148322    1.76725345786172
H         0.17958831303715    3.26280114419684    1.71861656688580
C         0.70755094233268    2.97437669832195   -1.69350052312566
C        -0.09556513874673    4.03706235957025   -1.29678443544627
H        -0.29150805865260    4.20298410991154   -0.24763538781182
C        -0.63722869361668    4.88853244532527   -2.24178437546683
H        -1.25117833806958    5.71977630166194   -1.92599117227283
C        -0.39129015778809    4.68118048574709   -3.58840523378772
H        -0.81031533069727    5.35059390256221   -4.32561546540079
C         0.38808221789784    3.60846070584857   -3.98939985706234
H         0.57695516841929    3.44266058203307   -5.04081685398692
C         0.93025002463485    2.75304047374540   -3.04879394942415
H         1.53330782119425    1.91016134387504   -3.35753836305308
C         2.81913348645323    1.25577134639305   -1.30404742599391
C         3.72356377642258    0.65752626674092   -1.84428700922839
C         4.79883849862106   -0.00626291969164   -2.47044817787508
C         5.82115498888969   -0.55731336415087   -1.69533688011720
H         5.78651086349151   -0.44632955393755   -0.62130228519486
C         6.85284908420799   -1.24370812055397   -2.30540839966744
H         7.64090826091874   -1.67349789161930   -1.70392683883486
C         6.87908796509812   -1.38535588842643   -3.68444155943160
H         7.68709209758545   -1.92439719894173   -4.15675649534408
C         5.86806157351894   -0.83536587344715   -4.45707275435488
H         5.88880296152195   -0.94715924233302   -5.53148551148605
C         4.82993199491149   -0.14812633473502   -3.85852436012219
H         4.03327320330567    0.27601452553526   -4.45190823040771
P        -1.36440853445971   -1.78337286738003    0.47597876775852
N        -0.41835078218289    0.71382309205490    1.86962757559884
N        -1.63095042071590    0.99480276448138   -0.73487803216945
C         0.30329476600873    0.47567811985248    2.99355980626104
C        -0.31187418963341    1.14926696558898    4.11524004351297
C        -1.41317652361147    1.79032785520889    3.63102407964728
C        -1.45510075651274    1.52189435734178    2.21086910852598
C        -2.39732448661861    2.03690262337917    1.33165745058402
H        -3.15338068912910    2.68297396037578    1.75385157543486
C        -2.47677428514087    1.78779526415437   -0.03041029158563
C        -3.50875421196981    2.29662774214480   -0.90632117660841
C        -3.26485185965830    1.77197537830668   -2.14036572833699
C        -2.07191386372703    0.96312325257394   -2.01717654165976
C        -1.46523470286320    0.27938427751079   -3.05996797386451
H        -1.94456360712324    0.34529800120267   -4.02528349173902
C         0.17465846364421    1.08714717061542    5.52545916997062
H         1.26273433849822    1.18975351998290    5.54393037940416
H        -0.24550423320234    1.91851199114680    6.09493689313514
C        -0.22320349379171   -0.23286011499943    6.19013407421136
H         0.14060588516854   -0.27154877735854    7.21520616652763
H        -1.30658538907395   -0.33642980150435    6.20310489737682
H         0.19272361198840   -1.07256698424733    5.63848286165231
C        -2.38288057321420    2.64919662767931    4.37561227507961
H        -3.38481053706250    2.52453665320860    3.95826758791749
H        -2.42018715014324    2.33565817926761    5.42122470302086
C        -1.98611441680563    4.12587861113494    4.30952017776970
H        -2.71106529454773    4.74090788668621    4.83920093367162
H        -1.00900901343042    4.27286893043771    4.76497501524243
H        -1.93671268494446    4.46128126036276    3.27575232674284
C        -4.59076756965974    3.24040188012650   -0.49662748137102
H        -5.43069850738270    3.15856248469632   -1.19041612875246
H        -4.95558708583048    2.98017254338107    0.50021782661715
C        -4.08963956877451    4.68611058249581   -0.48903925659030
H        -4.88153473064087    5.36455640266032   -0.17710242523605
H        -3.24989607103804    4.79155445552534    0.19417868746302
H        -3.75733270395623    4.97265632596682   -1.48414016574533
C        -4.03829831669915    1.96906660878509   -3.40196572375096
H        -4.09192240988977    1.02445534040414   -3.94964508776895
H        -5.06045069074959    2.26952083860934   -3.15978880907624
C        -3.40373048996906    3.03649852939392   -4.29503764855380
H        -3.97191602717297    3.15102975038850   -5.21629164845343
H        -3.38026937466173    3.99347970375903   -3.77920564377416
H        -2.38060870642433    2.76462766237023   -4.54337976709124
C        -2.08325947782778   -2.85114005763202   -0.82033733385427
C        -3.45646291600714   -3.05084655838526   -0.91580020561833
H        -4.11432166377659   -2.59353590345138   -0.19044922293039
C        -3.97841385363833   -3.82810263048595   -1.93383822049277
H        -5.04658763164944   -3.97865404702629   -1.99889470146657
C        -3.13835710396241   -4.41238799961835   -2.86672094561518
H        -3.54916969067721   -5.01732751059060   -3.66199708966999
C        -1.77067706745462   -4.21257571254429   -2.78059029109144
H        -1.11122980709177   -4.66091853935869   -3.50915618108963
C        -1.24516626104689   -3.43323477075295   -1.76721755598945
H        -0.17954999063873   -3.26273397177949   -1.71858731155968
C        -0.70755132735236   -2.97435337642877    1.69350871021029
C         0.09558781415917   -4.03702922638383    1.29679159513141
H         0.29150131950315   -4.20297375837074    0.24764612061859
C         0.63723385338260   -4.88851874382698    2.24178586014698
H         1.25114465811846   -5.71978757185194    1.92598963619671
C         0.39129925239753   -4.68116963173545    3.58840577268583
H         0.81028616998892   -5.35060749979371    4.32561103597023
C        -0.38806516331956   -3.60844876407966    3.98940121625706
H        -0.57697631790458   -3.44267008170841    5.04081039991329
C        -0.93025257609409   -2.75303853359782    3.04879830341288
H        -1.53328467526217   -1.91015020262444    3.35754695009763
C        -2.81923889423404   -1.25573914798873    1.30364829540134
C        -3.72362999489935   -0.65753273244530    1.84427386180853
C        -4.79881957598964    0.00622637158637    2.47043900111461
C        -5.82112607029233    0.55730508221716    1.69534040328248
H        -5.78649311055513    0.44632065760651    0.62130560638300
C        -6.85279281711249    1.24374010343073    2.30541301685949
H        -7.64090002592517    1.67345371573619    1.70394147088347
C        -6.87902897301580    1.38538541795182    3.68444494359996
H        -7.68708292340988    1.92434428459912    4.15676948118332
C        -5.86800594392639    0.83538022790047    4.45706747229604
H        -5.88879937417865    0.94709758506732    5.53148892702428
C        -4.82989883164681    0.14810608710312    3.85851131388698
H        -4.03324910009096   -0.27604821955878    4.45190276015020

