64
CSD_code = HAHSER | q = 0 | S = 0 | Stoichiometry = C25H32Cl2N4Pd | MND = 4
Pd       16.23686655987765    1.47919948340641    3.75675535783981
Cl       16.29009247297198    1.61062559963473    6.05380751065188
Cl       16.32675201818128    1.38040180458879    1.46716360078793
N        20.35394881561588    1.30408982583261    4.36668715531557
N        18.24197725193163    1.13792356026309    3.81566814369839
N        13.68736689878394    2.79713300385569    4.28710748973658
C        14.32684626490322    1.77715804042306    3.71902351275574
N        13.44476791210657    0.97684731525584    3.12491303811932
C        12.06637188170138    1.40064182028442    3.36360727948630
H        11.58290274103444    0.69270303019099    4.04889507251773
H        11.49001326041282    1.43064954819977    2.43964308277504
C        12.25491436714113    2.78094020530533    3.99512477130064
H        12.01854007452398    3.59327599269778    3.29603386130119
H        11.65961228989426    2.92093440720096    4.89668632544236
C        21.57671516036873    1.81670229625968    4.91510909237495
H        21.35957054486393    2.69699680105403    5.51693752151337
H        22.26907192360975    2.09208046484093    4.11631811175263
H        22.05117904807365    1.06319287041894    5.54561506424587
C        19.13720335595976    1.87684070357346    4.42581773598891
H        18.93315518592132    2.80536998082021    4.92864917416333
C        18.89033276091514    0.04349047586481    3.33862123835352
H        18.37337155338196   -0.71608654611814    2.78001971764255
C        20.20941016541418    0.13697301096289    3.67391075794051
H        21.03505586627032   -0.51707432186315    3.48394130686508
C        14.28484567585256    3.82973080726466    5.05836393913626
C        13.96174131269435    3.94468957611236    6.41467158185482
C        14.51478218551389    4.98142525074463    7.14726211462752
H        14.27147284235853    5.06842516000895    8.19665649627042
C        15.39546935377081    5.88999408168258    6.57776934524689
C        15.73261857069863    5.73221732656774    5.24456580016320
H        16.43789771005632    6.41397593696481    4.78955485729554
C        15.19449526081871    4.71280847407950    4.46919464096599
C        15.62950384788105    4.57044033948598    3.04068670483645
H        15.99746169195832    5.51979548920807    2.65728510281054
H        14.81893867641592    4.22230690943907    2.40034814918623
H        16.45418383837705    3.83413302173022    2.97382456517047
C        13.08553616217587    2.94225195955851    7.10378423034379
H        12.03281832064177    3.22588180599955    7.04982833039047
H        13.36022226381766    2.87982526037603    8.15351141567876
H        13.21743918478707    1.95784733012054    6.66120523420762
C        15.97125050266316    7.00070531092940    7.40331255846106
H        16.71575717374588    7.55950589597557    6.84210704640902
H        16.43709517688002    6.60138303065988    8.30251969077341
H        15.18379206248928    7.68723284082185    7.71298131953118
C        13.75476796484413   -0.18592336147772    2.36909511659760
C        13.46976657195802   -0.20862892059591    1.00097329933104
C        13.74072713732194   -1.36137198579477    0.28029130016560
H        13.52582204295442   -1.37543538708721   -0.77870383381696
C        14.30864483248422   -2.47661015007421    0.87513145710923
C        14.61799320204147   -2.41770671057789    2.22514948655488
H        15.08550181271322   -3.26975988269135    2.69897602317712
C        14.35300523411011   -1.28914530105161    2.98785337741557
C        14.74315687296867   -1.27315144542809    4.43680162923844
H        15.74167914381234   -0.80758350950611    4.55006878192639
H        14.80231229036822   -2.28722176844403    4.82660577640914
H        14.03735248034802   -0.70388488173239    5.04219067542703
C        12.93969349552797    0.99803337450621    0.28662952399805
H        11.84838994676961    1.02321948992126    0.29798174869114
H        13.26183339473876    0.97740367968169   -0.75114256993749
H        13.32699305408559    1.90638845065608    0.74199360587597
C        14.58434550853831   -3.71914045822744    0.08364631434459
H        14.60597766435099   -3.50339990722276   -0.98142489032944
H        13.80495395347255   -4.45969267115052    0.26675864950582
H        15.53682320914855   -4.15737383431600    0.37363548248833

