49
CSD_code = HAHSIS | q = 0 | S = 0 | Stoichiometry = C19H28ORu | MND = 9
Ru        0.43582885003149    3.12562922308320    5.02061075763443
O        -0.22565500420919    1.65493496156051    2.49486895811953
C        -1.70127461878719    3.08081144783659    5.63345066243261
C        -1.18619239696321    4.39574929514595    5.57145977248252
C        -0.73409237962930    4.88580375990265    4.32529746396064
C         5.81917992081960    3.76572391448973    6.11799951252038
C         5.35227700880191    2.62502254388066    5.64381904947637
C         4.14819229710475    1.92981458546509    6.18559953721175
C         2.96410612185996    1.87084970406137    5.17652750850709
C         2.59144385906626    3.25515124580482    4.61681330857805
C         2.26338149905659    4.22826498942992    5.59765640757871
C         1.65080594893147    3.78668585091084    6.81277778007827
C         1.27394041005185    2.41188821085551    6.93098744990603
C         1.64560855562591    1.51642896100210    5.88967071697913
C         3.30563388300977    0.87198481388160    4.07142222744906
C         3.23256119315121    3.69940105556247    3.31980035171423
C         2.54825955146544    5.69497359804936    5.40037768107713
C         1.57500506603953    4.70322282102114    8.01473430298521
C         0.53041716349646    1.95961241720491    8.16186499976246
C         1.27517266240726    0.05305860480841    6.00447836214869
C         0.00611890962517    2.23394581028174    3.46621487015090
H        -2.01350446554768    2.70923743374268    6.60593890047599
H        -2.34197425608754    2.74030154965767    4.82110267239034
H        -1.03550645229320    4.97582770340081    6.48261019594978
H        -0.31073573891959    5.88646024192163    4.30321441169691
H        -1.31837681850419    4.64986274351080    3.43690406146707
H         5.35015376690802    4.26495444342928    6.95099009712825
H         6.69039033982413    4.24692007676493    5.70600304048618
H         5.85172849770970    2.14059126098011    4.81546732005035
H         3.82289610148538    2.44544925864114    7.09168562918963
H         4.41201719939622    0.90315593898162    6.45455456904855
H         3.50554642125300   -0.10864750436100    4.49666695254434
H         2.48131057765895    0.78937198791667    3.36476253229007
H         4.19571910259774    1.18591795851766    3.53401067109678
H         3.18986459331229    2.91102408763564    2.57494942346698
H         2.71691164220987    4.56079577557782    2.90182580283139
H         4.27885199043240    3.96442743836951    3.48585717024242
H         2.49155792115269    5.97534074702250    4.35276722447038
H         1.85567757446654    6.32393950900116    5.95611515272974
H         3.56350682886520    5.90706259255117    5.74262764413715
H         2.35657063606908    5.45932184036505    7.96251418444271
H         0.61719521957075    5.22063727819675    8.10557144470473
H         1.72986871486582    4.13268513803275    8.93005037115255
H        -0.09494440845798    2.74965314276213    8.57234539685869
H        -0.10130922314305    1.10084258975645    7.95772132856107
H         1.25423463041050    1.66348798803953    8.92489221527903
H         0.24466062421273   -0.06889164137573    6.32885908302596
H         1.36751049964292   -0.44730681696909    5.04559876980435
H         1.92745997996531   -0.45118057630991    6.72166205374281

