57
CSD_code = HAHSUE | q = 0 | S = 0 | Stoichiometry = C21H26N4NiO2S3 | MND = 4
Ni        7.36887662826423    2.95863444480469    6.68439380431415
S         5.44526299957062    3.71865586919108    6.00633114924360
S         7.13355006844101    4.10264134081430    8.47043464048187
S         8.31925591288135    4.84788755289311   11.06266551977966
O         7.55503576246238    1.91373835359318    5.10918775163832
O         2.28240734853756    5.01589745034848    2.40563032647473
N         5.69513201069654    2.19422529861318    3.74719253138340
N         3.74267799824642    3.28041913658294    4.06661448453860
N         9.05806286724890    2.32099921446586    7.21606746148168
N        11.36520532668612    3.23490585288439   11.21335949044594
C         4.97756398588664    3.00241722869109    4.51313080983983
C         6.89162016755509    1.72493573210006    4.05721895398139
C         7.49199456397380    0.85213606220739    3.01696821765932
C         8.52504285309991   -0.01514587207573    3.36165310661635
C         9.09564229152370   -0.83280820129503    2.40504952595004
C         8.64495936707679   -0.78582372155608    1.09581205436722
C         7.61990406641162    0.07918277029075    0.74613847632002
C         7.04206193126496    0.89433558675323    1.70069209155558
C         3.28109746870922    2.83410205002188    2.76908426961433
C         3.14781288819087    4.05384485977494    1.84858726405526
C         2.73828654260270    5.44605559338685    3.66746618139831
C         2.85958449120998    4.26683769009232    4.64282659169280
C         8.42623488297252    3.96749176390057    9.55576461087570
C         9.59028202719580    3.21698439925739    9.37154115464970
C         9.87288001314556    2.43215391043454    8.22267993036796
C         6.69501972273401    5.67875019722726   10.95464112586298
C         6.45574278191877    6.47113066376477   12.22880025936748
C         5.10027169816600    7.17480264473579   12.19247634392933
C         4.84995217617603    7.96873187498432   13.46831501353659
C        10.55890278832063    3.23655363886385   10.39527098442019
C        11.18856042818582    1.70660498229843    8.20605214789696
H         9.42166955718490    1.71883853151119    6.47270771487517
H         8.86238345076324   -0.04918260083936    4.38688466788444
H         9.89261632567427   -1.50848341839587    2.67874424785353
H         9.09262652705809   -1.42325496797218    0.34770252760081
H         7.27169485421753    0.11724986897582   -0.27554604778001
H         6.24836963648047    1.57650418660247    1.43995302521940
H         3.99296067176009    2.11432618387514    2.37034637423639
H         2.30063172962996    2.36347504712941    2.89435212213709
H         2.71246590738078    3.76980663991323    0.88951699265188
H         4.14420302454371    4.49165163395733    1.68359177464566
H         3.71921702278031    5.93518172220112    3.56977927247044
H         2.00633337149807    6.17011036601845    4.02719676046090
H         1.87442968268560    3.80882615575242    4.78103668414554
H         3.24409354344004    4.60333036991364    5.60395000625395
H         6.71173336415213    6.32569194521072   10.07787924899034
H         5.93833783247568    4.90679318266452   10.81640511724539
H         6.49570693329897    5.79691014922748   13.08687258028116
H         7.24999201756354    7.21055670997401   12.35041669203670
H         5.06506763218142    7.84598395341304   11.33167914544429
H         4.31114065069550    6.43066934088877   12.06491751259140
H         5.61699961373498    8.72809340436876   13.60169127792894
H         3.88172550208492    8.46155285935417   13.42716520130951
H         4.86497096904066    7.31200596498740   14.33508833720762
H        11.24447811114302    1.01749004096077    9.04763511199648
H        11.31954534344088    1.14932204724829    7.28035640561079
H        12.00782266573099    2.41597231501140    8.31333097294929

