58
CSD_code = HAHTIW | q = 0 | S = 0 | Stoichiometry = C23H28Cl2N4Pd | MND = 4
Pd        0.23831446935995    7.19847494974476    6.83815796864533
Cl       -0.81259863415077    6.97338094401892    4.80162377402509
Cl        1.19856426358062    7.42962726415239    8.90769972460287
N        -1.53809976584597    6.71980197375436    7.73897544657706
N        -3.69075080106119    6.63995436116989    8.13983276679866
N         2.52910275017141    6.88291799807983    5.07064087813891
N         2.64814523664802    8.72680234312950    6.21250402224455
C        -2.71685699860025    7.17478731478021    7.38122080045340
H        -2.89681877057312    7.85868943473387    6.57148198606701
C        -1.74698880890486    5.85883828591583    8.77051901587812
H        -0.93235969892637    5.36186160542350    9.26403036267522
C        -3.08453108031953    5.80269692232636    9.03109963083285
H        -3.63958826823277    5.24655645828548    9.75789634870252
C        -5.09806822005855    6.90430653107735    8.04675509042317
H        -5.44624001355206    7.44157407738679    8.93222843869330
H        -5.65243734000330    5.96785764536487    7.96476151218879
H        -5.29218667952935    7.51035594298400    7.16369589802612
C         1.91856118150835    7.63809094571167    5.98089248661073
C         3.82013719330941    8.80351126356050    5.34182984704279
H         4.72647588157979    9.01273608487770    5.90913734370105
H         3.67717170846345    9.60927002350757    4.61097524418294
C         3.83302777480598    7.42126139289935    4.68775093671719
H         3.94553865563323    7.46471961357341    3.60481228572404
H         4.62428077601320    6.77698414012657    5.09094992092666
C         2.34668121850939    9.76061218719547    7.13979001106129
C         3.19866158439889    9.96837670354079    8.22891419725273
C         2.92744209486937   11.01661894264483    9.09612926063705
H         3.57787348489310   11.17870703113816    9.94301944583627
C         1.82773846801761   11.83106539768672    8.90534918499986
H         1.62744597596644   12.64004465982574    9.59213951144458
C         0.97002018513259   11.59011745561891    7.85000640500895
H         0.09374699821430   12.20786692583232    7.71572625036547
C         1.21074285259042   10.55596591122602    6.95454675340904
C         4.35141455879743    9.05345411784494    8.51247142916418
H         4.11482836042870    8.04028429322324    8.19648042461574
H         4.54742379021961    9.03641262603611    9.58131806133252
H         5.26144418125696    9.38773503655540    8.01100474346288
C         0.23636202195239   10.29418914195546    5.84532097897087
H        -0.44555655508654    9.47305736902909    6.14078192379365
H         0.73696159432385    9.99638898950509    4.92389671851093
H        -0.36556778348044   11.17869848156275    5.64918089031907
C         2.04366658029593    5.65987546647711    4.53321331067857
C         1.89914854179744    4.54046911910021    5.36003813098407
C         1.46577821342839    3.34831851348379    4.79357806752575
H         1.34909828517294    2.47921744231477    5.42477470826586
C         1.17745054292272    3.26456427891050    3.44552500001346
H         0.84243199492795    2.32997886312851    3.02058387031555
C         1.29221054313623    4.38658929907432    2.64732099471274
H         1.03005747739986    4.33331098425584    1.60087367658106
C         1.71460529746617    5.59769420389291    3.17557822837590
C         1.74943655366182    6.81445222872019    2.30082686231983
H         2.72836496470447    6.94563573177557    1.83623362111061
H         1.50145265409411    7.70196396438809    2.87811653776559
H         1.01470976003223    6.71239128034083    1.50650833568978
C         2.16322519022587    4.60649325574236    6.83477477526805
H         3.01207229549730    5.24915901539440    7.06956359078081
H         2.35290865324454    3.61207028683149    7.23281573945460
H         1.27352460968088    5.01706327915940    7.35132663007424

