29
CSD_code = HAHVER | q = 0 | S = 0 | Stoichiometry = C11H10Br2N4SZn | MND = 4
Zn        1.90308195476811    0.81459885699121    1.48327142808156
Br        1.45137827007733   -0.87913057063071    3.02355289406303
Br        2.48917022669179    1.08807064919140   -0.77362480894889
C         1.49207679298341    3.49133706020673    3.51129835535621
H         1.42597825526516    4.49003445849165    3.96948519624544
N         2.84919986558963    3.34406131513672    3.03668714683604
C         3.86854920859587    4.21080758383520    3.18982950917967
H         3.73808030083207    5.15125226150842    3.68561594269560
C         4.97864246778501    3.63875497379239    2.61816341720949
H         5.96515609294342    4.04621534728719    2.55338447234064
C         4.53514420693356    2.40608890262718    2.13301044757982
H         5.08530795306825    1.65104124621908    1.60605231361218
N         3.25283699439592    2.24255139466131    2.39871491070720
N         0.56216323419968    3.47270806085770    2.40654923121327
C        -0.27328471387353    4.45627241912289    2.01969932166017
H        -0.29553772199763    5.40413403965394    2.51820215741208
C        -0.99736976809802    3.98008471487100    0.95384399191650
H        -1.75066760846715    4.49157627987696    0.39302972006891
C        -0.52757960140978    2.67894175228294    0.75647249570467
H        -0.82110145984821    1.96149995365197    0.01522579330420
N         0.40525891042324    2.38757250409765    1.64368160297873
C         1.14554655659113    2.42544459439959    4.51434111007025
C        -0.07448193116782    1.87480085301165    4.76654283161823
H        -0.96987485350841    2.11630489688668    4.22164530123199
C        -0.03101379696454    0.93022035020775    5.81418702927796
H        -0.88540577748237    0.36932597016360    6.14264476420346
C         1.20922615526758    0.79072067526232    6.34231130319713
H         1.53099272325345    0.13709601377239    7.12717722849788
S         2.36192706315315    1.80231344256356    5.57940489268599

