38
CSD_code = HAHXAQ | q = 0 | S = 0 | Stoichiometry = C14H21NPtS | MND = 6
Pt       -0.69007442195917    2.27885262488160   14.60384218811548
S        -0.81213407823291    1.37482133064785   17.01702392321319
N         0.38182584993026    3.86268979663429   15.69507971837736
C         0.74969663016301    4.97429101741263   15.09181196896260
H         0.27639385908895    5.18286760220104   14.14258942888845
C         1.69240108999371    5.86398344760082   15.61403924803378
H         1.95070822296401    6.75084932174580   15.05736997247683
C         2.27511477089651    5.58473504060219   16.82264203412922
H         3.02029671222130    6.23452918805586   17.25712981211998
C         1.87891909158845    4.42525233059814   17.52112072262204
C         0.90253755568384    3.58220103962282   16.91698206988024
C         0.47439821014271    2.44912842187319   17.64267565655211
C         1.01196350148380    2.14860088913221   18.87001944760123
H         0.67286896382982    1.26632866759300   19.39194161454524
C         1.98940061261029    2.96798821803210   19.44205819962734
H         2.40284136957760    2.70852646106442   20.40460776025337
C         2.41070843214629    4.08992925817022   18.78111833465110
H         3.15797228957913    4.73934630934003   19.21295789441299
C        -2.19270768948654    2.08347583523274   17.97642304554545
H        -1.97325533374396    1.98355620414509   19.03590069874868
H        -3.07496985423380    1.50606569359952   17.71983001453462
H        -2.33856824422379    3.12501757354683   17.70836138803899
C         1.16577100435668    1.19986015301294   14.49331633144581
H         2.00856934887267    1.81119499069548   14.83288585449803
H         1.42277395536684    0.82633059671116   13.50234619302936
H         1.10795067287536    0.33392886003169   15.16045027958327
C        -1.68990055893010    0.70121521478550   13.74832708186742
H        -1.03025428121319    0.06726953413915   13.15642126386720
H        -2.52729112205925    1.01008953463621   13.12297176747980
H        -2.07864436030937    0.10783087309257   14.58238106523724
C        -2.56757262885061    3.31094695146463   14.77752987490944
H        -3.00882759875451    3.61167929257400   13.82621346107391
H        -2.44240487171934    4.22435159951816   15.37069062605314
H        -3.31338788760515    2.69251593940397   15.28375280365550
C        -0.34771332165936    3.01680640921195   12.70708212839580
H        -0.55327020021097    2.27557436715869   11.93533406097406
H         0.70485528125281    3.30267052645836   12.63941700448129
H        -0.97509097143257    3.89089888537261   12.52085506211573

