55
CSD_code = HAJDAZ | q = 0 | S = 0 | Stoichiometry = C20H26IrNO7 | MND = 6
Ir        5.23866081127877    5.78441829591873   20.18535239083900
N         3.69357267971857    4.27107007855292   20.53830453730372
O         4.75517491113431    6.83252544475218   21.88353065538953
O         6.50024778882296    4.59427377312905   21.28755473877311
O         5.73198075628651    4.71354917724326   18.50343841414179
O         3.94557455826632    6.92255271416377   19.06503021091368
O         8.72587376701224    6.71998633038175   21.20365927487957
O         6.99184224746454    7.31833555301968   17.49806264621954
O         2.19767913134602    5.88075141870330   21.02398699114746
H         1.29136357747150    6.05072280288190   21.30944061033802
C         5.33105248103930    6.70259584624755   22.99758053249866
C         4.89028660949475    7.66381932822518   24.08291342055973
H         5.72318596745177    8.31046112836091   24.34929570180475
H         4.58161855272761    7.11877267473374   24.97157411086557
H         4.06703077416716    8.27141175883881   23.71798338656553
C         6.32421760918338    5.78274207015247   23.33678652084703
H         6.73696598566409    5.84332482767153   24.33100683364802
C         6.85920718123781    4.82417582499229   22.47568163525969
C         7.99127278030766    3.97359200384182   22.99696364103000
H         8.08129993161008    3.06761255998343   22.40392684795907
H         7.85833144844705    3.72877756840606   24.04642704391143
H         8.90467322990811    4.55580601397848   22.88132777916474
C         5.31634637654618    4.94806375437955   17.33623620929579
C         5.96613458773905    4.14777221275911   16.23225387772305
H         6.71849816924122    4.78228622366704   15.76733509585859
H         5.24225759049723    3.85215782444213   15.47857844801390
H         6.45837117214986    3.27202002662529   16.64607609768829
C         4.32726077216765    5.86164521886522   16.96845992890481
H         4.05831230714911    5.91268703732897   15.92551770684756
C         3.72476381351019    6.77557173628938   17.83230306976814
C         2.70543405366223    7.72055271507686   17.22862936519723
H         1.92902071015601    7.16056259004876   16.71275755779504
H         3.19682134957095    8.36931744046224   16.50732041682289
H         2.26254123228937    8.32709261575190   18.01351404538553
C         6.82990518417692    7.19674277077985   19.89492108663122
H         6.67712466999996    7.95050739549562   20.67469734885129
C         8.12619670061266    6.50885497415689   20.16274777265539
C         8.66692262115757    5.58525630011816   19.11237595304514
H         9.66843337423641    5.25818399877945   19.38149800871737
H         8.66875208552970    6.08998084475640   18.14910015338590
H         8.00221749923594    4.72944776305899   19.02930167416593
C         6.64891486286546    7.80818858519707   18.55933712300405
C         6.01244927564810    9.18396486370228   18.60531655211324
H         6.72085959737485    9.88161672675922   19.04891634704450
H         5.11888257711699    9.15815979957600   19.22193827614032
H         5.76827982640845    9.51669940641008   17.59917992330578
C         4.02925606755704    2.99204471299067   20.40165107144151
H         5.05027877420844    2.81124140230020   20.10067278867210
C         3.14319638543853    1.95763262071507   20.62798929748189
H         3.45676082616791    0.93433921110443   20.50481860206484
C         1.84648567661049    2.26851138554110   21.01682214933478
H         1.12329640624522    1.48926630039671   21.20417313775241
C         1.49401092971763    3.59484448220379   21.16160637219295
H         0.49655047244497    3.88037265992118   21.46312896621589
C         2.45455127252791    4.57883720617164   20.91069765242560

