41
CSD_code = HAJDUR | q = 0 | S = 0 | Stoichiometry = C14H18Br3MnO3Si2 | MND = 8
Mn       13.25124109135151   14.64967914518853    0.07094117150543
C        12.47477070473882   14.64977408236753    2.06996807894993
Br       13.30171058804052   14.64980511618297    3.78576197694999
C        12.01525744061418   13.46690544950889    1.42433325971058
Si       12.21063920564245   11.68776264975521    2.09532706799210
C        14.06399797352853   11.44179061035973    2.46814177428533
C        11.09634016597291   11.60767795821353    3.63922581221118
C        11.68246919588126   10.39332313812831    0.80875748098056
C        11.18091260624273   13.94224603812856    0.36713455367423
Br        9.93737490082302   12.92102867855488   -0.64851007573483
C        13.55542104581445   13.33559044372291   -1.10328246655936
O        13.67492889055120   12.44874017025929   -1.81823599023364
C        14.92645398503375   14.64936646126333    0.70129152159314
O        15.97765722746073   14.64879761588309    1.16196291701277
H        14.35737246062931   11.88463299300994    3.41432954356610
H        14.69133334203982   11.87605330275914    1.69040224502329
H        14.29701857018029   10.38314946854242    2.52234311674200
H        11.40494352625055   12.30850582651019    4.40913359839259
H        11.13950536345039   10.61206238073426    4.06837302925795
H        10.05674121330631   11.81414699277229    3.39757368895799
H        10.60456426919359   10.33503676074510    0.70047681884030
H        12.02860872423210    9.41518951421075    1.12762385172741
H        12.10637183282887   10.58336290807495   -0.17298177022178
C        12.01538818277829   15.83261465604649    1.42420890106199
C        11.18099045919390   15.35724251844847    0.36704214295752
C        13.55546082879686   15.96417372737129   -1.10280262884321
Si       12.21077913982295   17.61177529253915    2.09513498131669
Br        9.93757833026103   16.37849065136068   -0.64872841219522
O        13.67467877000947   16.85103105810646   -1.81781005575498
C        14.06408778578144   17.85795263566354    2.46804814304456
C        11.09645297270503   17.69168132327973    3.63902761842488
C        11.68232983956756   18.90628234008371    0.80874988727305
H        14.35743714868518   17.41515280583634    3.41425957077844
H        14.69155289226607   17.42379492250122    1.69036097627284
H        14.29693674168733   18.91664636261427    2.52227922666773
H        11.40508755922917   16.99083437544746    4.40890151224876
H        11.13951799700792   18.68727108498636    4.06823801536249
H        10.05687761509253   17.48513830357859    3.39733228553743
H        10.60439685078105   18.96445410954865    0.70063209547084
H        12.02839904472648   19.88441131908810    1.12770641223510
H        12.10611351780269   18.71642480862350   -0.17307187648174

