63
CSD_code = HAJHUV | q = 0 | S = 0 | Stoichiometry = C29H24O8PRe | MND = 6
Re        3.45546261793098    1.11012121616475    4.32147075568199
C         2.32360397224046   -0.41917303716892    4.83869622498598
O         1.66507319675393   -1.30737287733385    5.13399907794646
C         4.42092801170203    1.14959461677326    6.01667817236349
O         4.99535098417760    1.16634346132795    7.00548154257948
C         2.26662302788444    2.48579688952898    5.04258028663531
O         1.61191306278496    3.28860528323802    5.53528046199755
C         4.80860935033964   -0.21708441636345    3.58729889051418
O         5.39871217006272   -1.18046852184906    3.46562067572047
P         2.47753192423548    0.97853101538961    2.07074368219263
O         2.90097663601036    1.68516988562271    0.70018481382044
C         2.31995399075901    2.84577662043655    0.12534809111433
O         0.86878508611341    1.15421019292846    1.87910945760044
C        -0.06429565739705    0.78619852970512    2.87661079249703
O         2.77788027061041   -0.54870481091154    1.70796975191434
C         2.39670792449879   -1.12509272044580    0.46261874628934
C         4.90008597042664    2.70283320546054    3.52531620593606
C         5.47496734205242    2.12195911418653    2.23300453105852
O         5.66379888221091    0.97062232911044    1.89920711868585
C         5.27011056859992    3.40357285958937    1.54362540832260
C         4.56236479113192    3.88392017422993    2.61275906065458
C         5.93518209029967    3.11201093799908    4.53648520299474
C         7.18194855298184    2.49491105656781    4.57935770162279
C         8.12085334385065    2.87530543071762    5.52072089138440
C         7.83516005725355    3.88447205274139    6.42367224518710
C         6.59934386924641    4.50907975719424    6.38368340316497
C         5.65659915516967    4.12747771972905    5.44926874236579
C         5.52405331645442    3.81368904118770    0.18387653407953
C         5.14065575217275    5.07123001028475   -0.28967284712391
C         5.38794185732157    5.42435673386874   -1.60155497248487
C         6.01860194026304    4.53597280331746   -2.45879471275857
C         6.40392971236757    3.28726318207720   -1.99670483727607
C         6.16250121901240    2.92651243978945   -0.68593455663623
C         3.73483385824501    5.05214451420737    2.85599380169533
C         4.32506567822713    6.30882668205335    2.98772105857347
C         3.54288432481090    7.41701674681024    3.25293684372149
C         2.16898618725941    7.28914767794006    3.38006104051572
C         1.57631041913805    6.04487277694379    3.24359754130107
C         2.35342855879397    4.93087668884745    2.98777229588941
H         2.59815196618967    2.82564995454713   -0.92835652944027
H         1.23478266170687    2.82547045631580    0.22202516641581
H         2.71535609977549    3.75256523772000    0.58224058932178
H        -1.01931812566622    1.22246801267729    2.58318628413560
H        -0.16062372103558   -0.29966838376501    2.93921581333435
H         0.23086002468449    1.17468341103252    3.85591461823444
H         2.38092980676939   -2.20358360990730    0.61528217535116
H         1.40874190945665   -0.77752702482096    0.15412720101523
H         3.12705563256164   -0.86984750910326   -0.30511859637673
H         7.41356681669520    1.70431608036193    3.87899400141981
H         9.08191789358185    2.38208443039602    5.54622878415903
H         8.57032110764994    4.18097247685978    7.15715841947288
H         6.36766455213289    5.29578347202879    7.08721171825907
H         4.68663911952850    4.60561584723817    5.43209928474778
H         4.64877776028451    5.76593414724803    0.37561247005591
H         5.08827935075336    6.39877514704343   -1.95974073591223
H         6.21008457536034    4.81736629070801   -3.48383776015770
H         6.89612814878292    2.59407695612701   -2.66341088957635
H         6.45543101498450    1.95356667487870   -0.32169454290035
H         5.39794757067796    6.40003642597457    2.89958401768276
H         4.00866625202822    8.38538863018614    3.36195094851809
H         1.56176232065648    8.15756099684276    3.58695708781451
H         0.50601360690439    5.93969603770397    3.34208637297522
H         1.89273963962055    3.95729057984868    2.87489497670167

