80
CSD_code = HAJHIJ | q = 0 | S = 0 | Stoichiometry = C45H31O3Re | MND = 8
Re        1.03921154849137    1.72597725957503    5.19438652496147
C         0.12350514463658    0.44255673653683    4.04819680620039
O        -0.48303220190308   -0.27945404966490    3.39132541993884
C         2.18946240212925    0.27847055474313    5.80470896639565
O         2.85201102221724   -0.58086510102745    6.18368768169144
C        -0.26248432586940    1.47129436770981    6.62300686313293
O        -0.99792204038550    1.24344509817705    7.47410090147634
C         1.77170262374754    3.89632689281873    5.93684873625299
C         0.72198485557384    4.80075900468695    5.27006188734754
C         0.21847033600609    4.05845037452949    4.03923018392043
C         1.13807746463827    3.40742080831453    3.22663969587089
C         2.44266332959669    3.01738054472751    3.73981119569369
C         2.76816778863885    3.34739638579327    5.09477577091875
C         2.15807521564555    4.36033636858646    7.29921549115336
C         1.56763342611912    3.84553053255080    8.44569697640505
C         1.91142857978494    4.33437407009158    9.69249938197711
C         2.85082447567845    5.34357783383175    9.80920470252051
C         3.44511631609657    5.86301547205132    8.67188320262452
C         3.09878931877260    5.37888782483422    7.42517643241339
C        -0.34689879713430    5.17382623190491    6.26911642789696
C        -1.44843588881105    4.36591245596975    6.51460573220275
C        -2.37010133495888    4.70795123067790    7.48726502106955
C        -2.20338358720055    5.86311995073532    8.22976693647042
C        -1.11201748691210    6.67949510608380    7.98785150661949
C        -0.19360053400762    6.33750245281946    7.01369712128377
C        -1.13415216200526    4.35946103505269    3.54610522813101
C        -1.64767064423618    5.65435363510653    3.60611606909076
C        -2.91476029170267    5.92737459470526    3.12781661574610
C        -3.69401513388492    4.91586138576737    2.59269918743600
C        -3.19892125810879    3.62297024569836    2.54098154592200
C        -1.93280039409078    3.34647600404947    3.01509076485840
C         0.82891372722921    3.08903220400304    1.81312626831367
C         0.34970060598545    4.09714274309979    0.97958869608833
C         0.10296759824899    3.84391381254896   -0.35581306283074
C         0.33168905718426    2.58287300536481   -0.87972753574126
C         0.81884579028939    1.57824718228413   -0.06138242159307
C         1.07213806097299    1.82944490366934    1.27344619102782
C         3.51676669815479    2.61612602580047    2.80548079751368
C         3.80588616363296    3.40781284276853    1.69642386339585
C         4.82737277219705    3.05763380396854    0.83433852739381
C         5.57857903159720    1.91869234441154    1.06912444704666
C         5.30089595130344    1.12824864607544    2.17171756203962
C         4.27657205822592    1.47184608643159    3.03217501930733
C         4.13791901629076    3.13920124953102    5.62433148083782
C         5.20586247492247    3.77122025973823    4.99392248396531
C         6.48663862642557    3.64590009962267    5.49791999662476
C         6.71749581049777    2.89338264331152    6.63647732277887
C         5.65796836432966    2.27268047604606    7.27585972939433
C         4.37533745579896    2.39795661421615    6.77749802448785
H         1.22027996401127    5.74066039941890    4.95554996753485
H         0.83864560936848    3.05155669093705    8.35824543333176
H         1.44365133405094    3.92311476566920   10.57461065717652
H         3.12075069572672    5.72460607266220   10.78294744574794
H         4.18038675655299    6.65035012427495    8.75461229290125
H         3.56396641753035    5.79108799789021    6.53969679513041
H        -1.60397614338655    3.46290385815725    5.93992774396715
H        -3.21958730062936    4.06512556903303    7.66362135896721
H        -2.92161691032259    6.12856414249481    8.99117267014440
H        -0.97340025386362    7.58543705581143    8.55958269627785
H         0.65840789146337    6.97954892243353    6.83391956760229
H        -1.04737436303245    6.45591078097587    4.01154914049611
H        -3.29585955873924    6.93711347045847    3.17533578247936
H        -4.68552610641788    5.13263919884814    2.22424748454670
H        -3.80398381196170    2.82515115814339    2.13670282101469
H        -1.56011487877164    2.33000052791961    2.99863997796035
H         0.18120838507559    5.08777316384385    1.37782218504199
H        -0.26787166466697    4.63626839926339   -0.98931715580491
H         0.13424925762656    2.38566410254448   -1.92280744754624
H         1.00427887719033    0.59298404684097   -0.46208050712206
H         1.45335482213612    1.03743645368073    1.90344511621295
H         3.23358854323431    4.30716059084129    1.51409986961918
H         5.03885205175675    3.68028010639512   -0.02277917051342
H         6.37617830225325    1.64736561681235    0.39371581358194
H         5.87991124958279    0.23647292634124    2.36028568433072
H         4.04797814001657    0.84119407673742    3.88224550212142
H         5.03306310698338    4.37034126544763    4.11105122306116
H         7.30641261780020    4.13992250873207    4.99742097011599
H         7.71973239638128    2.79356480191074    7.02551450525300
H         5.82814323461659    1.68739201139334    8.16690376503904
H         3.55019430857513    1.91226894374789    7.28294144366333

