46
CSD_code = HAJHOP | q = 0 | S = 0 | Stoichiometry = C25H15O5Re | MND = 6
Re        1.48081137681708    7.04017301731901   -0.21224505590447
O         1.20186021027406    9.70124935464530    1.34863731144394
O        -1.38519107244885    6.92227994150677   -1.42617794981151
O         2.99743866796026    8.31099042526673   -2.60231629363564
O         2.30155105687231    4.12033780036631   -0.84105900804380
O         0.65900275166732    6.09526631948928    1.70377878299818
C         1.24548375993416    8.77006650805419    0.69520621595759
C        -0.31624280667860    6.99009946392169   -1.04253692739853
C         2.40989272059222    7.83780202058083   -1.73800679099033
C         1.95653241485706    5.19716189414758   -0.70288433685887
C         3.17425898176734    6.90980444362388    1.18769158910907
C         2.88453238446372    6.33993458788461    2.40178265673823
C         1.52217180591074    5.89123092322828    2.58318692159344
C         4.50947624164248    7.45368371635294    0.94456993271413
C         5.21896668485000    7.09192655988984   -0.20250774307971
C         6.48252368266125    7.59615525285891   -0.43526673907130
C         7.04693746859951    8.49840951414184    0.45236285622182
C         6.34000875550735    8.88845726483816    1.57758564249836
C         5.08748472671678    8.36466746318019    1.83091177167275
C         3.86875556978904    6.19558707139121    3.49450687093051
C         5.08522310888289    5.55752013406589    3.27303603374084
C         6.00642706539317    5.43670786561696    4.29636152970680
C         5.72601187196653    5.95326744811315    5.55022335257208
C         4.51921200133964    6.59318792367711    5.77719541932905
C         3.59479410566229    6.71441670331976    4.75676673913952
C         1.09844684228781    5.18409475176224    3.80932422803754
C         1.87474581003995    4.17628921865938    4.37680118927936
C         1.43016418368538    3.52193461331589    5.50988450571571
C         0.21961016115748    3.86852208543167    6.08866843028598
C        -0.56318722108433    4.85884014972284    5.51817345479070
C        -0.13291727738835    5.50654614308486    4.37596773331765
H         4.77287155467606    6.39496086345943   -0.90055882387499
H         7.02533187996335    7.29396995477141   -1.31867230833089
H         8.03021686407875    8.90239187331670    0.26288372175911
H         6.76894576053069    9.60144656214630    2.26641595772899
H         4.53824600567760    8.67906148592909    2.70655628069235
H         5.30282114540766    5.15054493153458    2.29569272330054
H         6.94666301672317    4.93741896120631    4.11404016144622
H         6.44716813130422    5.85932278180943    6.34847969140558
H         4.29743547075767    7.00204101690024    6.75214765242320
H         2.65760130218952    7.22407624418852    4.93434176867698
H         2.80933908110514    3.88989541950651    3.91931456891301
H         2.03204280197193    2.73739557017884    5.94336055393047
H        -0.11742758730214    3.36025686183314    6.97978659488060
H        -1.51217596300320    5.12256135437166    5.96062791980393
H        -0.73706549778231    6.27694553939145    3.91926121424818

