85
CSD_code = HAJLIN | q = 0 | S = 0 | Stoichiometry = C43H36Cl2P3Rh | MND = 6
Rh        3.95694256553604    2.71948463688672    3.05731786516160
Cl        4.84661341563048    0.58301725419956    3.14942638276818
Cl        5.91625199281806    3.97279869636185    2.29112181474251
P         2.88978969796903    2.00498933125669    1.16116185132891
P         4.88811364539855    3.51621278498442    4.97564245370453
P         3.33426866051504    4.90545815465874    3.19379115733880
C         1.65077008278004    1.41691880194290    2.35028261409138
C         2.20572155923808    1.81203304693288    3.57827911738682
C         1.51724220904365    1.51521666097930    4.74168560728210
C         0.29168701986021    0.86592844634266    4.65522969803996
C        -0.25639097920712    0.51408654696327    3.43285886545159
C         0.42283022726321    0.78608251356700    2.25578758966244
C         3.49869014254815    0.64980731672257    0.12341598231780
C         4.86675740545644    0.57107813802571   -0.11498513820896
C         5.36530554155080   -0.44306021596839   -0.91202906642239
C         4.50270864732426   -1.37406807454040   -1.46757981453360
C         3.13901082446587   -1.29162943982132   -1.23258472245582
C         2.63153439591657   -0.27922383101824   -0.43953145651999
C         1.97018590461900    3.05446807739515   -0.00003516782862
C         0.95517606263679    3.86749726318725    0.49557816082877
C         0.30232022415775    4.74747569195448   -0.34542777329038
C         0.66464897229644    4.82932947755523   -1.68112893634429
C         1.67856069742652    4.02545017310970   -2.17563768184187
C         2.33528773920806    3.14069075384640   -1.33935944987058
C         6.67055895229765    3.47461269191297    5.31076765535792
C         7.44047681923166    2.43668396967642    4.80336171394579
C         8.79323568325239    2.39156619487291    5.08826014944505
C         9.37066837657246    3.37221024335220    5.87794688324649
C         8.59675979647632    4.40156161405090    6.39066151468999
C         7.24382273103947    4.45435979013131    6.11305466733385
C         4.30102315079891    3.08801143532175    6.64749149871842
C         3.98122463386390    3.98098518531932    7.66081220144673
C         3.60087367355334    3.50112764547571    8.90270934846080
C         3.54585157818653    2.13762681999322    9.13879174744299
C         3.87376197379000    1.24316843937121    8.13116591505528
C         4.24928908126981    1.71638057101901    6.88873228336169
C         4.43763733362477    5.29147600873474    4.64590962987315
C         3.61692331592421    6.22273857854284    1.98295864337129
C         3.57647086555383    7.54830797422223    2.40458594400959
C         3.76582894380957    8.56425666884102    1.48725355192539
C         3.98795537052523    8.26140753021681    0.15249683598541
C         4.03045600775680    6.94157215115469   -0.26544448662225
C         3.84929598613039    5.92023246746163    0.64915364608991
C         1.69032043354102    5.32403885418196    3.85886581691438
C         1.32879276235740    4.78439393756530    5.08995159667731
C         0.05967403809051    4.98613503517019    5.59593482999066
C        -0.86524705237110    5.72013097713645    4.87008134529597
C        -0.51538223745614    6.24912175093778    3.63870085784327
C         0.75474604502228    6.04842477574394    3.12807442160643
H         1.91469051411216    1.76420670680526    5.71638806881686
H        -0.24470481639483    0.63307685651539    5.56478778927875
H        -1.21643066793891    0.01918989373470    3.39646772006625
H        -0.00339226197764    0.51922644069479    1.29863789037848
H         5.52907093278076    1.29604800103063    0.34115375664550
H         6.42746433362720   -0.51191534506142   -1.09462897220394
H         4.89346829720254   -2.17072745056890   -2.08384531898655
H         2.47041162786733   -2.02135039176335   -1.66629627639308
H         1.56983868032135   -0.20855622224585   -0.25164023895427
H         0.68339598895866    3.79826433875950    1.54176724525345
H        -0.49093117715690    5.37179005361510    0.03989301341384
H         0.15640214488060    5.52105632942335   -2.33662127224978
H         1.96095530510977    4.09037703117742   -3.21636148337928
H         3.13294006695733    2.51651088232188   -1.71915439612768
H         6.97734646157723    1.68682330705995    4.17593140318385
H         9.39905993336348    1.59195695580116    4.68864494042477
H        10.42846910089546    3.33796644991292    6.09486119945136
H         9.05007946677090    5.16488588873977    7.00686332404990
H         6.63338278247286    5.25369717600971    6.51292064469359
H         4.02406010303845    5.04838948060942    7.49300979488616
H         3.34799717559293    4.19656529856696    9.69016457607357
H         3.24725192042435    1.77212311100616   10.11027620538415
H         3.83139471973816    0.17981114977030    8.31439887122471
H         4.49711940622942    1.03623482864680    6.08177079909878
H         3.92486876709699    5.81220130873663    5.45701304836906
H         5.31457771979227    5.85357389142399    4.31348622760180
H         3.39191390902321    7.77479448336206    3.44694122417025
H         3.74007073656385    9.59461995855102    1.81141838402671
H         4.13388036452889    9.05887557007836   -0.56123423897809
H         4.21029349771050    6.70672947530370   -1.30395068468851
H         3.90784781355657    4.88563093371532    0.34120800158351
H         2.05144953580855    4.20071539700483    5.64597166224311
H        -0.21126952325920    4.56636797646506    6.55360250427488
H        -1.85948584746222    5.87564076961402    5.26185259807272
H        -1.23730000824839    6.81832806722328    3.07104861708813
H         1.02596807915633    6.45629788202072    2.16409520801990

