85
CSD_code = HAJMIP | q = 0 | S = 0 | Stoichiometry = C37H45NOZr | MND = 4
Zr       10.75922794127956    3.09013037039230    3.84636084401089
O        12.21199216410453    2.40670471321579    4.87012408128206
C        13.39374370924953    2.11038068403617    4.31686190974750
C        14.06349433384886    0.90379989853555    4.60472416842016
C        15.29212886345365    0.66665190679274    4.00034146125019
H        15.79959785742845   -0.25336849606552    4.22343736016405
C        15.88801960858180    1.55691955541946    3.11795109722514
C        15.20127880898997    2.73130327034753    2.82937136285579
H        15.61376316868399    3.44618217638724    2.13225115535135
C        13.97873714903485    3.01703192042381    3.40610282550855
C        13.21632841168250    4.27483007850658    3.02594714884518
H        13.07735912698962    4.90328592671724    3.92596576604429
H        13.81659496204418    4.84469548965209    2.30020437046285
N        11.89870489192496    3.97151998775003    2.46343230154486
C        11.90388991273656    3.69967399207047    1.08312258154702
C        12.06117912418710    2.39896861026360    0.57015004279056
C        12.09279917435840    2.21152185991830   -0.80443119807744
H        12.22738446392666    1.21265703948136   -1.19607597390860
C        11.95837454169899    3.27607544343769   -1.67672811277851
H        11.98889497664372    3.11015778348115   -2.74341125884614
C        11.77206959795341    4.55076164948010   -1.17563420158836
H        11.64812098355322    5.38479611064554   -1.85212983466289
C        11.74378529649620    4.77497396257226    0.19149187708455
C        13.42147260402854   -0.11279817838997    5.54569079963812
C        12.04537667680606   -0.52310930151189    4.99114800143688
H        11.60720257468200   -1.29267964326848    5.62452706614748
H        12.15473071955098   -0.92659207837736    3.98469239574434
H        11.35834528679109    0.33031536493877    4.96330816436631
C        13.25963339262433    0.52068662751348    6.93410853522398
H        12.75870502593721   -0.17005930630850    7.60965407670576
H        12.67356650675324    1.43318381451087    6.86879690356445
H        14.23523010517554    0.76688252433238    7.34838485387495
C        14.25368489086977   -1.38996760250981    5.70486163643183
H        13.74007430315971   -2.06871398192399    6.38309945945067
H        15.23124115161968   -1.17376640099972    6.12865479843378
H        14.38053452158579   -1.89956345210955    4.75247876369317
C        17.22722894769383    1.28928559391196    2.44708147364474
C        17.86852999677483   -0.02506253952465    2.90082821319238
H        17.24345115875108   -0.87700285043188    2.64402032136224
H        18.04627064739126   -0.02229891637963    3.97359543318397
H        18.82712850440764   -0.15124563150177    2.40131487645359
C        18.19641634133276    2.43056409937694    2.78548569634367
H        17.82854235757749    3.38418303939019    2.41841658170497
H        19.16913550612103    2.24447887371867    2.33467394602548
H        18.32326912923646    2.50640136019717    3.86325797475471
C        17.01647725462607    1.21992337109910    0.92769626656413
H        16.59574310136847    2.14536859319365    0.54465090648741
H        16.33429458879871    0.40931005942663    0.67964667056467
H        17.96397400926049    1.03971553500496    0.42398654980492
C        12.20702151537739    1.20701197249633    1.47966696951689
H        13.26322861386927    1.01670315574231    1.68382755654224
H        11.79372542684970    0.32039617031559    0.99931497741208
H        11.68804208914648    1.38201170351697    2.44140464763010
C        11.53426033047526    6.15718081729848    0.73795451032459
H        12.48263301843990    6.69109057337828    0.80731572519892
H        11.10428624674105    6.09107019594610    1.74048811828758
H        10.87255297779518    6.72744830460391    0.08989120290514
C         9.11569373124669    1.56293340143227    3.52664869213834
H         9.18157535190427    0.47945502277627    3.37383936036698
H         8.38506685512484    1.79811886908667    4.31540667614942
C         9.04698007089121    1.71529234608647    1.01729463553057
H         9.25571819048687    0.65423465582584    0.95255967950704
C         8.90977648981062    2.45372060511492   -0.13895326715329
H         9.03082128602306    1.97068308109223   -1.09751780365119
C         8.60556439244540    3.80566506161171   -0.08520947345850
H         8.50555746712128    4.37856582703932   -0.99332384421357
C         8.40341581698766    4.40292783004131    1.15001140307730
H         8.11752152051858    5.44519106555285    1.19948705767950
C         8.53071788956797    3.67524129934655    2.31954458104445
H         8.24492151435066    4.13146906321807    3.26806236537575
C         8.88059356661243    2.29820389900641    2.29075102388966
C        10.36563586015352    4.92775684700447    5.11458068882790
H        11.28273976968287    5.07067912860470    5.70538554143728
H        10.01333971246835    5.87586899049374    4.68927582656558
C         7.96725088084095    4.50061587406043    5.73740275353016
H         7.66336788635074    5.38674122789598    5.19100059756067
C         7.00711011538207    3.71629097834606    6.34744262875662
H         5.96316623088442    3.97908277476749    6.24862306499131
C         7.37068403552216    2.60678530107186    7.09457995620277
H         6.61680264086235    1.99711904415500    7.56852238902049
C         8.71826676992149    2.30258924376673    7.24568882657006
H         9.01102404776228    1.45882057256841    7.85548378046450
C         9.68685616564483    3.07359136959041    6.63448656016836
H        10.74126372658369    2.85710571443308    6.80384266720824
C         9.33808942437874    4.19264510583658    5.83922978556129

