43
CSD_code = HAJNIP | q = 0 | S = 0 | Stoichiometry = C20H15NO6W | MND = 6
W        -1.24599359686593    4.86922516320588    8.22219186257812
N        -1.77431282501022    7.85161190458865    6.99919092541682
O         1.37032886187837    5.99172872876890    9.54517192797401
O        -3.74775035333256    3.46651509488269    6.94551667387164
O         0.65178411640825    3.41445254705303    6.18763372454093
O        -3.18079056564890    6.05962449156387   10.38742096724654
O        -0.89504273754562    2.44010961585703   10.17584303071703
O        -2.61388873268702   10.28235650046539    3.44537243720939
C         0.39718195076640    5.65322483775914    9.04585230501954
C        -2.84367034229820    3.99338360032132    7.40640233586579
C        -0.03843139536070    3.98034598232718    6.90000465641091
C        -2.46663822738591    5.67702187362987    9.57760922285599
C        -1.01669026114879    3.32413182522164    9.46101266361426
C        -1.60943850893871    6.51847045973349    6.76737926283818
C        -1.86041592015552    6.13101394261464    5.43822102368979
C        -2.31274636739315    6.98371447832741    4.45174866608542
C        -2.55553338769553    8.32901312762145    4.80404356896185
C        -2.24422225479116    8.74312857595313    6.08420372805344
C        -2.45556878657081   10.15969731524402    6.51156094262144
C        -1.43299086837889    8.36944688639723    8.30895955960414
C        -3.16474937965312    9.27354012269883    3.81120980139262
C        -4.55194482128989    8.88845396273833    3.37053319075802
C        -2.49221843891426    6.49168550503274    3.07970826478511
C        -3.12790531328818    5.27267628827166    2.84995474779700
C        -3.27793865544087    4.79662095200372    1.56094261254998
C        -2.78353308125731    5.52171429666326    0.48901281533612
C        -2.13905068004110    6.72769429980883    0.71040002651950
C        -1.99571870248592    7.21429822840806    1.99638588940374
H        -1.67371110737092    5.10117946406841    5.16479015300123
H        -3.08471108950637   10.21175140565163    7.39908789839401
H        -2.92249311079151   10.73427468314299    5.71890073878316
H        -1.50397348891639   10.63785705422128    6.74227831603665
H        -0.90403510258839    7.59734253296898    8.86458697573336
H        -2.33069132910144    8.64711185091490    8.86433561370772
H        -0.78842389459930    9.24328232366633    8.21924507249954
H        -4.87203670609283    9.52579669602133    2.55064975902008
H        -5.22647191013267    9.02741219553218    4.21550139874729
H        -4.59840047864449    7.84470160819421    3.07420822448224
H        -3.52502834262082    4.71266020987865    3.68415107937084
H        -3.78065106386403    3.85601924887403    1.39274008400764
H        -2.89799049096355    5.14618301656751   -0.51660038396226
H        -1.74507671396533    7.29222560377879   -0.12119144585784
H        -1.47791589639418    8.14650149945167    2.16532968231052

