49
CSD_code = HAJPEO | q = 1 | S = 0 | Stoichiometry = C18H18CoN12(1+) | MND = 6
C        14.69081694267141   -7.18473278859468   13.77116575276024
H        15.05739274165806   -6.67409207510241   14.63829010146231
C        14.01659083962828   -6.66985990742675   12.69749964831020
H        13.69863730747577   -5.67507000120376   12.46504710613902
C        14.30987612284965   -8.82951225006881   12.45889515872953
C        14.31270473227509  -10.17432009478545   11.98028806634667
C        14.02002860131895  -12.00228578772923   10.79943155596077
H        13.70187838356745  -12.62272594551838    9.98762831873764
C        14.68487761136448  -12.29505777691357   11.95438908249068
H        15.03432088702729  -13.24299345077837   12.30922222990914
C        17.34820421468772   -9.81263852419822   16.72407531159584
H        18.26699876919876   -9.62706347836121   16.20528850057379
C        17.07600412709497   -9.62209685771528   18.04839553274279
H        17.68692200305385   -9.26494717391380   18.85108481811159
C        15.29750160228608  -10.38657674303607   17.02829710041161
C        14.04339578101867  -10.85832032473824   16.56902613085689
C        12.01039489001774  -11.57709207932102   16.19709878611959
H        11.00141373094844  -11.86360725436229   16.40912653211334
C        12.71599683200119  -11.55942821055098   15.02831146733135
H        12.38348386381229  -11.84798835630471   14.05162788224767
C        16.52316614819224  -14.40628962650092   15.02882891864867
H        15.63893382391070  -14.81804263814687   15.47115034732035
C        17.71585270749795  -15.02438636862841   14.76839259836657
H        18.05115896496806  -16.02667805150379   14.93480342782366
C        17.78228392498312  -12.92570611919424   14.13717605931204
C        18.17815478880128  -11.65409480333170   13.62341073753709
C        19.29581709860821   -9.97871537273072   12.74842202695334
H        20.11600451785114   -9.45153552965560   12.30733032976071
C        18.03576468287457   -9.57494668837053   13.08147002840701
H        17.58741490552842   -8.60832554418259   12.97547153671780
N        14.86487884263441   -8.51377095457354   13.61283696771824
N        14.86309056075910  -11.16115990159224   12.67720873602932
N        13.77641359210521   -7.72444712504888   11.86270821561288
H        13.29170052811998   -7.66912925791486   10.98237599929043
N        13.78695352783000  -10.65696698990951   10.82068836735344
H        13.31540942630045  -10.13570681276079   10.10072785455114
N        16.24442331780960  -10.28835652211519   16.09657054018348
N        13.97404879033664  -11.11149920224941   15.26301730820348
N        12.85729101192562  -11.12948312665448   17.17280839881093
H        12.63033531944860  -11.03202126347996   18.14811045028796
N        15.77251818911519   -9.98943033792210   18.23724332753810
H        15.27449353964042   -9.95902666195917   19.11089341058981
N        16.57668460598582  -13.11590193211243   14.63673963791845
N        17.35158794792824  -10.61523433326874   13.61961526918668
N        19.38048119138252  -11.29730514649093   13.09312716956727
H        20.19076595884955  -11.88101567317434   12.97018393894630
N        18.51582948276623  -14.07434573856482   14.19899225348804
H        19.46346626465621  -14.22091307428587   13.89326396593032
Co       15.62713635523435  -10.79615612305608   14.36284309499362

