85
CSD_code = HAJRUI | q = 0 | S = 0 | Stoichiometry = C30H50O2P2Pd | MND = 2
C         4.86489791171271   14.14532521642917    4.77880214341168
C         5.54986512843001   15.44042263887462    5.19076112938998
H         5.51060813102890   15.59323443541703    6.26460894161948
H         5.08304387624281   16.29226485750003    4.70326434337487
H         6.59716258069284   15.40908134479609    4.88699714773731
C         4.88069715406893   14.00940852460283    3.25112269761145
H         5.90401499412354   13.95672887932235    2.88070243334997
H         4.38297913815514   14.85459994924279    2.77544483796072
H         4.35670354069652   13.08254972408083    2.96450068643726
C         5.57318599445605   12.92284505082898    5.36394342079906
H         6.57197695370598   12.81897712034969    4.94006085986260
H         4.99678544589488   12.02107716284759    5.11378362273387
H         5.67043960167188   12.99542193079040    6.44509481108803
C         2.67732369632834   13.92002978864826    7.05998544431457
C         2.77502606605019   12.44163033001838    7.45964894392923
H         3.81200989210834   12.11498692270146    7.51267969318302
H         2.24992746925140   11.81796760450119    6.72135016215615
H         2.31716971990485   12.27978542116135    8.43506112988306
C         1.20992778053927   14.34572384647518    7.14837899118696
H         0.80485343578599   14.13307716780594    8.13725811323954
H         0.62139696847029   13.79413318724046    6.40913345894482
H         1.09942048342683   15.40954606499471    6.95125636588183
C         3.54278221087254   14.75675052358964    7.99224530738084
H         3.53050458630658   15.80080194611751    7.70189252789831
H         4.57109215588468   14.40137155263166    7.99832718253753
H         3.15623241765241   14.67704520117180    9.00916046273403
C         2.24726648761608   15.39588998676578    4.43030108758484
C         1.51464842310633   15.05661209721867    3.29703550313148
H         1.46367650492649   13.99688494646522    3.02375623263819
C         0.86818635882098   16.01047627068587    2.53294075005294
H         0.30977549664332   15.72301732271694    1.65503657963912
C         0.94477295457545   17.33681123138191    2.91215928125404
H         0.44759451196185   18.10139735001750    2.33325990517776
C         1.65516766167047   17.70215871826760    4.04411858339224
H         1.69290246245670   18.74427140606945    4.32174500503573
C         2.30768698939831   16.74309455841505    4.80936236846452
C         3.14773942316871   18.36872279363432    6.34154264599131
H         3.64221929532447   18.97250464403285    5.57338846341668
H         3.77032451570665   18.35193597074577    7.23561633709861
H         2.17897892175493   18.81648217531740    6.58774010378144
O         3.01362332847303   17.02920515437367    5.94100299547905
P         3.04024632160138   13.93709177965044    5.20481419487257
Pd        2.39619294576452   12.03467901645737    4.15388491073626
C        -0.07190710553626    9.92632301296426    3.52552295263058
C        -0.75682318616197    8.63121007970928    3.11355376966432
H        -0.71753934889948    8.47842034356617    2.03970349602492
H        -0.28998555247658    7.77937465003759    3.60104668958613
H        -1.80412410767939    8.66253128146367    3.41730376345607
C        -0.08762113516524   10.06228768089147    5.05318530139834
H        -1.11094311583669   10.11500624703999    5.42363599833449
H         0.41003498688676    9.21706506065730    5.52886823701140
H         0.43661812079235   10.98911095268123    5.33955551282409
C        -0.78018093192308   11.14881361438149    2.94039490167240
H        -1.77897725631923   11.25266005244698    3.36427115339984
H        -0.20378604760198   12.05058803299378    3.19057198094571
H        -0.87741748618178   11.07623240551836    1.85924327503765
C         2.11575563104492   10.15173674937264    1.24438676052447
C         2.01805332623002   11.63012817692456    0.84466908319948
H         0.98106012618070   11.95677275196037    0.79170745059444
H         2.54327088373532   12.25392942183237    1.58275065449378
H         2.47586702135471   11.79193943819576   -0.13075290473394
C         3.58314956130936    9.72603860013654    1.15604813136007
H         3.98825297446903    9.93868737144523    0.16718131299276
H         4.17165625882555   10.27762626941308    1.89532268528038
H         3.69365275796076    8.66221432383033    1.35316642159716
C         1.25032565386109    9.31499942846943    0.31212295891110
H         1.26260614408346    8.27095020144665    0.60248458555672
H         0.22201481262146    9.67037521562831    0.30603730589630
H         1.63688720024770    9.39470610409933   -0.70478692620685
C         2.54576790076968    8.67581798328397    3.87405041469850
C         3.27836326655842    9.01521166403190    5.00727723293994
H         3.32916180024090   10.07502121203744    5.28039223726866
C         3.92485615593631    8.06135965019211    5.77141618447267
H         4.48325802375710    8.34881991657352    6.64932827258441
C         3.84830021452730    6.73499297992304    5.39223397704757
H         4.34549140566905    5.97041566114820    5.97114578429713
C         3.13792178641851    6.36958648369707    4.26028064244738
H         3.10021223355239    5.32746638220997    3.98267127839797
C         2.48537900354234    7.32861587534262    3.49501891206531
C         1.64536528259347    5.70296758903977    1.96283641600608
H         1.15088642428379    5.09918382517448    2.73098847901177
H         1.02278606956238    5.71975266235423    1.06875912382547
H         2.61413326777900    5.25522254980182    1.71664770517944
O         1.77946166240095    7.04248412724071    2.36337348856920
P         1.75272538015661   10.13453215648812    3.09951549334421

