15
CSD_code = HAJWAS | q = 0 | S = 0 | Stoichiometry = C4H7AuClNO | MND = 2
C         0.82478692672831    3.82955384882662    4.79615382452800
C         2.56260765086587    3.53472003822573    2.95368372909939
H         2.55064377585396    2.49374866992958    2.61732518987737
H         3.55312138719629    3.79047714962613    3.34060822038689
C         2.19856696221422    4.44365500445634    1.77564899425033
H         2.01926346446287    5.47064719422164    2.13137203621577
H         3.04039612667412    4.46418225695901    1.06541276213931
C         0.57109731794664    4.70847191598748    0.10356029864908
H        -0.30970250885298    4.20142449363982   -0.28235523135414
H         1.32192267488141    4.79765646219406   -0.69043758060063
H         0.29581361644074    5.71232715915572    0.44681095617052
N         1.63536592007859    3.67201015022776    3.98353736121279
O         1.04751718717809    3.92020579845344    1.16670024704312
Cl       -1.90988822619030    4.48722102252844    7.74331640469386
Au       -0.43541227547507    4.11909883556826    6.14596278769083

