65
CSD_code = HAJXUL | q = -1 | S = 0 | Stoichiometry = C22H31AuB10P(1-) | MND = 4
Au        1.42601944164854    1.09338761304705    4.94648988073591
P         0.50664685645244   -0.31485486824802    6.92169152941261
C         0.54082853030239    4.04427008793958    5.16334067080578
B         1.93358189390696    4.44177587487556    5.71934882994910
C         3.33362204285448    3.75319963912021    5.21964023449744
B         3.30427882495392    2.58866443296781    4.11323052788591
B         1.64542185845271    2.32448171215395    3.14783831729118
B         0.30011850219320    3.07872455237349    4.00182095462519
B         1.25614421175468    5.25101591661924    4.09620610410313
B         3.00572423768084    5.34516009244229    4.59533918002314
B         3.93402734759542    4.23306513501374    3.67157724553581
B         2.94460212691273    3.31622201163671    2.55757884155414
B         1.24164587682804    3.97129604114661    2.67747094905593
B         2.55639556287568    5.06527700450148    2.92079045337014
C        -0.65962668022445    4.45416404996475    6.01031699983263
C         4.36626123328907    3.61846046544571    6.33791893442519
C         0.22296042726216    1.04640472615104    8.09991378251593
C         1.14775229627806    2.08048994557787    8.17002783735099
C         0.96751567327090    3.11625279787718    9.06731582149384
C        -0.14765277160108    3.13436327757030    9.88894216860199
C        -1.07636377248533    2.10760186387440    9.81953900271088
C        -0.89321791081928    1.06329307406073    8.93283607882296
C        -1.21916621128450   -0.65627680246930    6.43780261714516
C        -1.83546110880280    0.31804223878255    5.65330175279959
C        -3.14629355007341    0.16387284546318    5.24624753619683
C        -3.86419052313083   -0.96072228354153    5.62018449042486
C        -3.26008658592125   -1.92850655416447    6.40745418453891
C        -1.94796471911406   -1.77891209863352    6.81837597678827
C         0.84030556758903   -1.69971915652589    8.07450150608691
C         1.25081803756956   -1.52013642396488    9.39801561168891
C         1.69204247960973   -2.59354302826590   10.14556062648052
C         1.76166327582036   -3.86185517471675    9.58792480308981
C         1.40386391298435   -4.04445285628297    8.25805296046026
C         0.97137612550515   -2.97483938231501    7.50586779468433
H         1.93745981427291    4.95087150593296    6.80352785617243
H         4.10976320189679    1.71400794210904    4.23135335960369
H         1.39120656112242    1.45713261074412    2.36092767009212
H        -0.82761720639509    2.76322051148119    3.74755515496986
H         0.58090442577972    6.22819976921897    4.05226593360817
H         3.55130771726423    6.28854464479139    5.06765104056730
H         5.09990524144798    4.40091672822442    3.52653615796961
H         3.41585527776380    2.98442592870764    1.51496504031554
H         0.54129199859278    4.13196650158307    1.72817951815132
H         2.72203316831098    5.92408001378485    2.11441389453173
H        -1.53500468003197    4.66626056768790    5.39162147755858
H        -0.45597996766291    5.33899002237897    6.61612411758729
H        -0.93373706259851    3.64440627918585    6.69564114265516
H         5.36368871781506    3.41732108059425    5.94294126940084
H         4.11585373950396    2.79193629141510    7.01128224917226
H         4.42502829389747    4.52406890152806    6.94452746259233
H         1.99808687850819    2.07535296800677    7.50432821781634
H         1.68913236363994    3.91714260265577    9.10923818466887
H        -0.29936661522335    3.95134744372258   10.58042504080189
H        -1.94995750177279    2.12367981716960   10.45751588829980
H        -1.61509181383772    0.25898898210455    8.87992781773754
H        -1.26766915412636    1.18898809293638    5.35311249871578
H        -3.60925098206849    0.92659047130340    4.63717579778261
H        -4.89160025707833   -1.08197755546148    5.30624733628806
H        -3.81759722822064   -2.80523363534956    6.70916858566050
H        -1.49458130336937   -2.53622567809129    7.44202841130338
H         1.20209598069935   -0.53595502036915    9.84310328484322
H         1.98652892521522   -2.44334366558419   11.17575400635043
H         2.10670216747957   -4.69872676949300   10.17832532822450
H         1.47518257464925   -5.02696929159451    7.81076031737485
H         0.71363421431861   -3.10737483093352    6.46191173428267

