47
CSD_code = HAKDOO | q = 0 | S = 0 | Stoichiometry = C14H18FeN4O10 | MND = 6
Fe        6.42297075976198    5.97680238929522    5.61756696236694
N         7.03959734011666    4.34099239087412    4.70716028170389
N         7.53523072881781    2.58832994084736    3.50376803017647
H         7.82824498185132    1.98828046425743    2.74658177706642
O         5.98528724019148    4.63194497591032    7.10238343096837
O         5.95684880153286    2.43620795713741    7.52001413229935
H         6.30064450997456    1.07517236069920    6.76207315529617
O         6.56209652127855    0.29680765341374    6.15729032572967
O         7.36738656034276   -0.13238452154025    4.12588687047365
O         4.39132386092999    5.59190685904929    4.79651930134190
H         3.79801442461371    5.37889555447125    5.52433466591249
H         4.02344991503031    6.34127333273153    4.31844258502227
C         6.19215012836251    3.42170110930339    6.81170736709290
C         6.77511418632555    3.22301223649727    5.44851410191856
C         7.08466797191636    2.10735016759088    4.70545104163573
C         7.01295200478332    0.64917703059410    4.97849383968579
C         7.49022983590094    3.93673663252542    3.53464764262797
C         7.91146986871326    4.82869763581243    2.42771711967423
H         7.39003309870293    4.54190915000328    1.51247895975604
H         7.61496946090173    5.84128298507775    2.70067002728965
C         9.42280196338621    4.76207809894626    2.19137526354786
H         9.96331927796768    5.04368807965730    3.09143911307542
H         9.69948010598687    5.44981060239081    1.39787924955291
H         9.73393645362106    3.76044602583213    1.90212532746086
N         5.80700904398158    7.61246769569702    6.52855860240197
N         5.31289167468258    9.36481546095025    7.73303535224867
H         5.02016600838481    9.96462674517763    8.49052330567459
O         6.86195454367518    7.32224785321194    4.13332598134261
O         6.89289001013533    9.51832554468764    3.71757173270409
H         6.55043846571110   10.87915658279969    4.47648085533266
O         6.28983688277107   11.65736127419131    5.08181360943342
O         5.48373570338354   12.08574222053634    7.11306946894653
O         8.45527883896150    6.36132637534940    6.43748797080860
H         9.04756299971648    6.57688255167805    5.70924272418630
H         8.82490359899110    5.61215582489458    6.91393430628022
C         6.65580957680371    8.53247850948074    4.42479011212748
C         6.07272713217969    8.73069021261208    5.78799781832230
C         5.76429054184176    9.84617322057716    6.53181433419087
C         5.83784175871061   11.30449706029708    6.26002449216736
C         5.35656217523880    8.01638386590681    7.70127413897267
C         4.93429286249878    7.12415636892745    8.80761720222632
H         5.45471037404328    7.41085071943541    9.72346027349058
H         5.23118828897952    6.11165820453273    8.53477331471782
C         3.42269970899518    7.19042179076425    9.04245578994055
H         2.88316401010407    6.90906383748263    8.14172488123926
H         3.14534545722171    6.50232136592527    9.83540663727454
H         3.11108034197778    8.19187760350631    9.33179652429464

