57
CSD_code = HAKDAY | q = 1 | S = 0 | Stoichiometry = C13H38OP4Re(1+) | MND = 7
Re        7.62515762049904   11.18775382068929   27.72397157348450
P         9.51109396669795   12.65030747679397   27.00298817781521
P         6.20679196313605   11.98946278124030   25.89614015445145
P         7.00553217408760   12.94938025317877   29.35873935524478
P         7.22055969202346    8.75064400178391   27.79558709275769
O         9.37856235596988   10.24509327450801   30.08140482478180
C         8.73633119761174   10.59592188625526   29.19101441639173
C        11.04111367216158   12.27911597400646   27.92752305250706
C        10.08211837094635   12.32971381096691   25.29637844750774
C         9.52236822452912   14.48516649653443   27.01166757153785
C         6.29574138398423   11.05255689771992   24.32926599488200
C         4.41059185053671   11.91849809352554   26.23213770814706
C         6.35502197588688   13.69591014161458   25.24597784000890
C         6.21225985574087   14.53603012660919   28.90090089978576
C         5.79756804070184   12.30881701865180   30.56678711213408
C         8.31470614926566   13.51255162705134   30.50787965681565
C         6.11662168692940    8.01007394054236   26.54851551603482
C         6.50089115085881    8.16209713438553   29.36339984020273
C         8.72112298146031    7.72914469960855   27.63693770230367
H        11.87142451645610   12.84158900656750   27.50017904895336
H        10.92577084859209   12.53705538382377   28.97911832855755
H        11.24168047197123   11.21040696474135   27.85129019588935
H        10.94022412577752   12.96403281682526   25.07385843785809
H        10.36906482291525   11.28177211536762   25.21528646006497
H         9.28542712591159   12.53128985875551   24.58215181987472
H        10.51112991006510   14.82458534646953   26.70219431490254
H         8.77858661222732   14.86899435214914   26.31612238362296
H         9.30911028008806   14.87019306250754   28.00641064677100
H         5.67957805769738   11.54171420314434   23.57515530615700
H         7.32728831514297   11.00073044320947   23.98471641132246
H         5.93259761316168   10.04116392419557   24.49651314117342
H         3.85387235672586   12.22531160009660   25.34725602821506
H         4.13705188780688   10.89969613854635   26.50331676211615
H         4.16377925342816   12.57474494923374   27.06563933871119
H         5.56498405788786   13.86306996273110   24.51364157817918
H         6.25751993636219   14.42134695881309   26.05069608818328
H         7.32199510095348   13.82304590669376   24.76161442550714
H         5.95447429494429   15.07693794938200   29.81172530924178
H         6.88498704963240   15.14387439216518   28.29875749763772
H         5.30358739184653   14.33565869884276   28.33438825293883
H         5.62769859828191   13.05012394942447   31.34770633024802
H         4.85892624533567   12.08082303129941   30.06309500713567
H         6.19316104772771   11.39276328792901   31.00491270962467
H         7.88359313014844   14.22063562005399   31.21591351264961
H         8.69974664179007   12.64999072417817   31.05074579205307
H         9.13691319975936   13.98731763009300   29.97672037973039
H         5.96926331694377    6.95742449866672   26.78882353869118
H         5.15920687606960    8.52728862650684   26.55576368273005
H         6.58077813636283    8.10123444606711   25.56838359064544
H         6.45482757526552    7.07368522110981   29.35189102925131
H         7.12507361281115    8.49485260030714   30.19107953949337
H         5.50065396907776    8.57681985264091   29.47775233054436
H         8.45044866955332    6.67885155310046   27.74116750807184
H         9.17149246748989    7.90315766493849   26.66113228674011
H         9.43104163270627    8.00571416287445   28.41438676313693
H         8.42614140630451   10.41101493079153   26.52118291517408
H         6.15274513175283   10.80384871009329   28.31649437140393

