84
CSD_code = HAKGOP | q = 1 | S = 0 | Stoichiometry = C28H51ClNP2Pd(1+) | MND = 4
Pd        0.41369350967096    0.71489631346022   15.91984047469964
Cl        1.60079570959965   -1.05940718447816   15.11619640184147
P        -0.96261137051894    2.19026641828074   16.98370091443424
P         2.17318599155576    1.59361926797705   17.07831042667586
N        -1.35644825816985   -0.60601443318174   13.76460970186517
C         0.09957441798873    3.36234376027852   17.95495879076446
C         1.47216018471077    2.78784205071701   18.32769345164003
C        -2.09839786566954    3.29242176363796   15.94378189376390
C        -1.26765602626916    3.75810353748308   14.74258661753895
C        -2.62921777796064    4.50960753050574   16.69823082223515
C        -3.25751108601618    2.45419964116838   15.40284803105578
C        -1.94585871445891    1.19637036576845   18.26298382896738
C        -0.93199798673258    0.73657804466244   19.31049309901054
C        -2.47247989906950   -0.06653029622741   17.57318880676257
C        -3.06861775103554    1.96300965645326   18.95472954510207
C         3.15667840750015    2.66370711188148   15.86428342555268
C         3.33734014271037    1.83168158720518   14.59133251765212
C         4.48919338455352    3.19175291126862   16.38596925821072
C         2.26725261312439    3.85326466499057   15.50112187681594
C         3.31165262964233    0.47313379117723   18.09349166302860
C         2.40073850359140   -0.56978917773397   18.75289144900054
C         4.27641283523658   -0.27046416028840   17.16796809031561
C         4.09507344925646    1.22100614010542   19.17215712651559
C        -0.88482188060031   -0.02144307486260   14.65161562958649
C        -1.81642165276324   -1.30142389256928   12.69919293333809
C        -0.97009917918504   -1.45794489061043   11.59176240284927
C        -1.45140289042580   -2.18264637009092   10.51522599048926
C        -2.72408177362780   -2.74066965317609   10.52054088547448
C        -3.53590974635724   -2.56360037208672   11.63857184809066
C        -3.10677583708910   -1.84791998334875   12.73932812681809
C        -3.96970603717188   -1.65464455655287   13.94720603000130
C         0.39620037721589   -0.85371152706341   11.59876280380781
C        -3.23083485636910   -3.51634364915148    9.34934250114417
H         0.22598026188672    4.24499394858254   17.32520914510113
H        -0.43828116736787    3.67765678099745   18.85418270181613
H         1.39554333232423    2.23295656243397   19.26397962208807
H         2.18833016934731    3.59802197981459   18.48920151230845
H        -0.55829837932652    4.53313029795275   15.02273285637428
H        -0.73342421878084    2.91384522411904   14.28727067636409
H        -1.92345789815597    4.18133031731486   13.98403088195224
H        -1.82508910967234    5.13588721711752   17.07611295385440
H        -3.22176141814481    5.11401797014359   16.01340682639799
H        -3.26903561058500    4.22794615563051   17.52761029766180
H        -3.81691919613175    3.03850413157078   14.67389289122704
H        -2.87910124043782    1.56363318870374   14.89987074969743
H        -3.95097947911790    2.16118026824694   16.18555191989073
H        -1.38213731452020   -0.02153553783791   19.94936276960869
H        -0.07396288296820    0.28711631402606   18.80546038475989
H        -0.60770132803527    1.55338890470807   19.95063680633050
H        -2.98517856599529   -0.69197138850763   18.30237772661741
H        -3.17444783640513    0.15663296299362   16.77507222692380
H        -1.63423522444508   -0.64769404660100   17.16154435123217
H        -2.70671314435430    2.89711747618524   19.38004724971119
H        -3.89705338917421    2.17533752779000   18.28556122030960
H        -3.45706112605896    1.35749098599944   19.77232946177986
H         2.35387075203623    1.54770659571338   14.18677816018635
H         3.86017374813639    2.41630856111070   13.83613765356755
H         3.90522950111490    0.92308462744402   14.76926349587322
H         5.22251107771690    2.40357717506429   16.52274046629082
H         4.89675360213697    3.89278574314919   15.65879610884188
H         4.36287556860291    3.72802429963018   17.32481099804813
H         2.19926779320586    4.57532491619053   16.31149394714105
H         2.68293380129613    4.36858161011386   14.63662984661153
H         1.27384824767578    3.49023183891503   15.23404237815517
H         1.84827629326193   -0.15021483420002   19.59136140515348
H         1.70497812057565   -0.99470490860039   18.01973678408420
H         3.00357083389272   -1.38852276402299   19.14060988766792
H         4.82266381820950   -1.01401907571621   17.74595921204933
H         3.73188032784951   -0.79306259960959   16.38440621536985
H         5.00864078395579    0.39230314508390   16.71702363147967
H         4.69304110917707    0.49836743280370   19.72496821780311
H         4.77391308072709    1.95388361819778   18.74911910326115
H         3.44403906309206    1.71915996582747   19.88639265000342
H        -0.81571443462919   -2.31790563476225    9.65312682508596
H        -4.52411401799943   -2.99857079647387   11.64649330447629
H        -3.44419380548711   -1.96799606818605   14.84922767757170
H        -4.23770213115065   -0.60331106655962   14.05991353761607
H        -4.88425955532740   -2.23311545401793   13.85828853494800
H         0.97896245013460   -1.23431853778964   12.43840166109244
H         0.92331644278902   -1.08255607518284   10.67779749641008
H         0.33623803348552    0.23079584341634   11.70700052756178
H        -4.06844896431349   -2.99336281414948    8.88887227951516
H        -2.45492536170035   -3.65319782117475    8.60171712643374
H        -3.58934297916056   -4.49351549916490    9.66792827076840

