83
CSD_code = HAKHAF | q = 0 | S = 0 | Stoichiometry = C42H34BrNO2P2Pd | MND = 4
Pd        8.86303734150823   -0.31992988973205    9.82508157970933
Br        8.75722968569078   -0.14569624003725    7.39293085839337
N         9.01099242116994   -0.75190026467195   15.96193880246419
P         8.50857842133872    1.89066403833047   10.03953687837713
P         9.24589900606465   -2.53317003309818    9.70734113534764
O         7.99054093162285   -1.09258492681519   16.53293249597431
O        10.05490983870551   -0.49399391008187   16.53366400994450
C         8.92645056989346   -0.45260899448093   11.77692171292062
C         7.78191802875042   -0.82126765373340   12.48072082344202
C         7.80162167156662   -0.92499613436885   13.85503502640834
C         8.98192185484078   -0.64927610919576   14.53983734909225
C        10.13412824070922   -0.27485242538549   13.85406495917424
C        10.09904325842962   -0.18255192990010   12.47930686718557
C         8.70871995691379    2.60648512883558   11.69970437343920
C         7.66713010063475    2.42502251478430   12.60705661426712
C         7.82017494858199    2.80006705801011   13.92684496040952
C         9.01634644693574    3.35567907723599   14.35390025076699
C        10.05193694591911    3.54469445767759   13.45474836026307
C         9.90472280285957    3.16698813381804   12.13157056975110
C         6.91426304607555    2.56460420541213    9.51000374602774
C         6.01390161145577    1.71473241126549    8.87719503548892
C         4.78129873060851    2.19233415227563    8.47037304347693
C         4.44416499542767    3.51554868240953    8.70109734595136
H         3.48379785956341    3.89131459656188    8.38067089304099
C         5.33193342336996    4.35988013494895    9.35112040885789
C         6.56410801858224    3.88864221028380    9.76260050418972
C         9.81700278225014    2.68723659337302    9.06381981945370
C         9.68068114531182    3.87252152729931    8.35616038031007
C        10.75394354321209    4.36004516742681    7.62924376975895
C        11.95531335631550    3.67268832389618    7.60640336846261
C        12.09234707514161    2.48256918412894    8.30514004216945
C        11.02460847088587    1.98835288668650    9.02707781764274
C         9.17709141647376   -3.46402366539661   11.26839160352476
C         8.01859508241981   -4.09140181954159   11.71054893386462
C         7.97210569164727   -4.64067819049419   12.97988440019421
C         9.07176889911593   -4.55777519142828   13.81687091695291
C        10.23063605264164   -3.93553389348889   13.37910911385290
C        10.28294577351574   -3.38870771650705   12.11246603686808
C        10.80320593253895   -3.09770373405966    8.97626942470385
C        11.19897485527219   -4.43112422335167    9.04851270473764
C        12.39807071682490   -4.81993257443555    8.48215712146796
C        13.20820147248761   -3.88553323776508    7.85429751360935
C        12.82661244004280   -2.55541545523535    7.80080817739924
C        11.62703507563600   -2.15942358903423    8.36426046544700
C         7.88364696797797   -3.22920836221080    8.72859913448819
C         6.66907123400113   -2.55305788170433    8.84907403183546
C         5.56142211437601   -2.98216980995056    8.14573685070589
C         5.66492580068248   -4.08337598597493    7.30932833077036
C         6.87263812610077   -4.74707130923909    7.17678474099800
C         7.98588405293503   -4.32492911263040    7.88385274408461
H         6.85666657296438   -1.03397859270950   11.94905124149898
H         6.92472792533262   -1.21393289538770   14.41462183998565
H        11.03324506796776   -0.06467388435047   14.41343849931925
H        11.00202392358541    0.10666696840102   11.94664054910540
H         6.73862830596993    1.98277877636585   12.26696999598679
H         7.01155074528352    2.65090950843302   14.62694914237506
H         9.14109769190726    3.63730418704058   15.38848881245909
H        10.98271806361316    3.98038146806101   13.78692494569051
H        10.71851754045892    3.30799953502279   11.43278253606506
H         6.28940011265532    0.67887282380262    8.69629024244700
H         4.08518278562628    1.53407065613498    7.97241673509371
H         5.05985138234035    5.38810616743614    9.53998681757959
H         7.25138580223389    4.53565043318618   10.29181772034553
H         8.73758451600453    4.39942876212717    8.35489048556363
H        10.64714669136185    5.27792275344222    7.07031777970081
H        12.78481038303874    4.05646356355733    7.03157338084733
H        13.02579324396170    1.93966482129808    8.27395700275234
H        11.10930545565872    1.03589276056824    9.56642082394323
H         7.15501589426533   -4.14997445656183   11.06151593459133
H         7.07005928999386   -5.12765990572743   13.31990687357925
H         9.02608099385660   -4.97402791472236   14.81181628920678
H        11.08913653391645   -3.86867841711850   14.03091179555612
H        11.18198657502352   -2.89360943064666   11.76616865304659
H        10.57378140197862   -5.15142229259150    9.55977084237209
H        12.70492479248977   -5.85453385771999    8.53189165754789
H        14.14281015424734   -4.19722005229854    7.41195056466380
H        13.46190207612828   -1.82756951859823    7.31862687354108
H        11.31778647948697   -1.11854306031121    8.32202510642325
H         6.61031470182439   -1.66895837415103    9.49655597567712
H         4.62217874146146   -2.45633480223710    8.23630197098058
H         4.80346982185904   -4.41558530795340    6.74952991127467
H         6.95223406010359   -5.59446975139258    6.51203871921479
H         8.93228403833734   -4.83181689109602    7.76335423388747

