89
CSD_code = HAKLEK | q = 1 | S = 0 | Stoichiometry = C44H40IrP2S2(1+) | MND = 6
Ir       12.40932058104181    0.04569708755459    5.71913296624306
H        13.41569021872068   -1.08798704880904    5.82776183881093
P        12.63003151988226    0.07648999740328    3.35854090768013
S        10.54078509461211    1.76209116265058    5.42345926634129
C         9.14186850694500    1.79604244768584    6.42434119115373
C         8.77513628879850    3.06880324505179    6.71504470275894
C         9.65287916015025    4.03326378454645    6.15912691307353
C        10.67031537304098    3.47632993376475    5.45768217299946
C        12.14034035180687    1.69177498643194    2.66946934733893
C        13.02181642149091    2.76648956932370    2.76540107287029
C        12.64015674216957    4.02405030660693    2.33566643227383
C        11.37092797054207    4.22424987449638    1.81581547891741
C        10.48817121522295    3.16048547775362    1.72285063998570
C        10.86541611833471    1.90000687590498    2.15094353717207
C        11.58718173330121   -1.07650221491818    2.40518373497960
C        10.31403965060223   -1.38297039271321    2.87954330742837
C         9.47908010364033   -2.20908278901207    2.15092400019906
C         9.90941427496108   -2.74088701743586    0.94565786644940
C        11.17616233125497   -2.44301955304102    0.47233922824559
C        12.01449594581409   -1.61199982681765    1.19477107607896
C        14.28581199550396   -0.22264721282757    2.66337709086760
C        15.06451482207270   -1.21510761483160    3.25352155531362
C        16.31638796610454   -1.51229717298186    2.74688761508694
C        16.80170407458610   -0.82024522632564    1.64820545636300
C        16.02400944628085    0.15611897374576    1.04764404922731
C        14.76715847296445    0.45312047682715    1.54544419307773
H         8.66260552716597    0.87758906311667    6.69928162146991
H         7.91411914861263    3.32056919622078    7.30704574948138
H         9.52558050423969    5.09350144032502    6.28240528054147
H        11.45179072755460    3.96155875429908    4.90649592229390
H        14.01683225100630    2.61153837900869    3.15767329634173
H        13.33508789192861    4.84774158754177    2.40803050618943
H        11.07250621203559    5.20634767668291    1.48271105737599
H         9.50024313542532    3.31284599478899    1.31556594011642
H        10.17267480270264    1.07426058124381    2.07583627234237
H         9.98538524737562   -0.97355188846063    3.82592148870001
H         8.49253168280873   -2.44083413588506    2.52295005213647
H         9.25947643672528   -3.38924568271463    0.37861913837366
H        11.51540286707215   -2.85946826119239   -0.46388204366308
H        13.00131535578509   -1.38764736400017    0.81741243791555
H        14.67382368588581   -1.75011148594564    4.10915406853783
H        16.91386968439532   -2.28419451101624    3.20772537671945
H        17.78068811965108   -1.04721019167872    1.25513335115947
H        16.39309789904238    0.68549613827045    0.18221262215920
H        14.16243182538539    1.20448438043084    1.05778768720956
H        11.40179469979716   -1.08708022521256    5.61214424218000
P        12.18810079382643    0.07667700515061    8.08270207500454
S        14.27883357139146    1.76162669354328    6.01885108832158
C        12.67793819566021    1.69205729983262    8.77134175135368
C        13.23112350431781   -1.07666193871885    9.03544072663380
C        10.53221764814945   -0.22241121504563    8.77763185562602
C        15.67608089288092    1.79572689800725    5.01574901106088
C        14.14756676370290    3.47570893465126    5.98272715074258
C        11.79636540918947    2.76667201552325    8.67562088922234
C        13.95306452524497    1.90034066359670    9.28926015896634
C        14.50426809243030   -1.38284860515984    8.56087004429090
C        12.80410942845478   -1.61229235243971   10.24585322569969
C         9.75330184218420   -1.21458938298399    8.18731629637480
C        10.05126005457744    0.45289374016977    9.89597352550375
C        16.04269330603099    3.06855039031479    4.72519186359018
H        16.15590531320962    0.87741167335641    4.74124401925565
C        15.16487514486904    4.03285102218590    5.28125087024187
H        13.36641079911809    3.96077417151851    6.53447899851012
C        12.17811292450215    4.02426408703656    9.10513425022911
H        10.80118670965109    2.61158466725450    8.28379808099797
C        14.33042376252871    3.16084485390676    9.71710251956656
H        14.64579226277826    1.07457346342122    9.36430172979709
C        15.33944848181611   -2.20896200640374    9.28920740208324
H        14.83267690489532   -0.97338306546462    7.61442028008084
C        13.64266802390321   -2.44328202765304   10.96803523190274
H        11.81745326110778   -1.38782712630030   10.62355578779790
C         8.50152711588940   -1.51187351528798    8.69410689399893
H        10.14384203561957   -1.74947401186377    7.33154228064284
C         8.79456603771671    0.15572875397367   10.39402633260355
H        10.65625571879962    1.20387540622959   10.38388188568275
H        16.90398854861851    3.32048606980660    4.13360938083655
H        15.29230696444533    5.09310136619050    5.15846649330161
C        13.44756413142659    4.22455718256573    9.62441507018183
H        11.48314832365283    4.84792926287451    9.03283528589415
H        15.31852560310855    3.31327878565567   10.12392554830614
C        14.90932420914437   -2.74104523556885   10.49441975452214
H        16.32584018634945   -2.44080839912072    8.91683198664562
H        13.30369602565449   -2.85969497259494   11.90437646149423
C         8.01657878232436   -0.82026294610975    9.79321685040450
H         7.90382240203930   -2.28344239299823    8.23300954873378
H         8.42566080269645    0.68495066914038   11.25961801601562
H        13.74621175308261    5.20675415975253    9.95699792487902
H        15.55943228439223   -3.38942775498888   11.06124304286776
H         7.03755737459155   -1.04708986267742   10.18625870166952

