61
CSD_code = HAKLUD | q = 0 | S = 0 | Stoichiometry = C28H28Br2P2Pd | MND = 4
Pd        6.76127596827017    1.43420003517394   18.10572769459139
Br        8.51196288795659    0.17053123182658   19.15677123793655
Br        8.26499076346855    3.01276354662700   17.06614269114876
P         5.25750777212697   -0.18607765957164   18.53662887806644
P         5.15213624986406    2.79526625238357   17.30883223843779
C         5.62330587694392   -1.66928746440584   19.51487304516700
C         5.69336532290883   -2.94696646085512   18.97557379150311
H         5.50020992323311   -3.10664689614922   17.92396563771759
C         6.02326524786127   -4.01467791220773   19.79218984787131
H         6.07755005805445   -5.00913308149558   19.37415841674044
C         6.29687287087174   -3.81057477115980   21.13372903655716
H         6.56346477663459   -4.64699536265259   21.76224077253922
C         6.24874614434752   -2.53235429738445   21.66847078040224
H         6.48394601260437   -2.36961953476333   22.70945880539604
C         5.91701430015296   -1.46342450496250   20.86110451657451
H         5.91024223734692   -0.45530179924362   21.25978314273918
C         4.94337423933438   -0.81037982657105   16.84836474064781
C         3.80707216533149   -1.52677788704104   16.48316985606694
H         3.05505487634194   -1.77207885106104   17.22078498130493
C         3.63752635591956   -1.94156490578676   15.17408919080343
H         2.74955528005824   -2.49202216721983   14.89897416316754
C         4.60141036639505   -1.65645682204126   14.22016998845480
H         4.46110302939511   -1.97850683668965   13.19924506605945
C         5.74917649361624   -0.96872278539689   14.57932206747948
H         6.50906373219248   -0.75537835658921   13.84286663000526
C         5.92120287825735   -0.54870471722515   15.88611639651349
H         6.84623640447673   -0.02018828881580   16.16011493063150
C         3.59920145722211    0.29348801412297   19.21586553427400
H         2.82281089163044   -0.28712549000677   18.71083365013647
H         3.59970421565329    0.00652589032284   20.27248416751643
C         3.30281757128879    1.78715328619338   19.09627269838609
H         4.01057824132845    2.34571820533134   19.72444907308344
H         2.30079614940770    1.97740261898677   19.49073431307885
C         3.40131858034468    2.29283512734418   17.65551252361430
H         2.77014945145338    3.17438137517306   17.50620888078359
H         3.07622943955706    1.51737752955690   16.95740074683695
C         5.10933557293763    3.30134554933046   15.57076364372635
C         4.51709921971231    2.46375225616830   14.62858107554117
H         4.03728876805121    1.54507327426882   14.93960791558000
C         4.55678721215552    2.79429366274264   13.28707763892231
H         4.09630013869302    2.14002388816855   12.56114258841570
C         5.19458108291114    3.95341818128396   12.87595399282286
H         5.22857256808516    4.20650070869618   11.82677279612266
C         5.80248846693027    4.77792038130832   13.80849442532237
H         6.31555202849309    5.67222121272046   13.48882579537228
C         5.76988982297883    4.45324700181776   15.15186965930519
H         6.27115315857581    5.07952046118905   15.87560505442842
C         5.24600520627169    4.30906521719531   18.30329158145325
C         4.52862384932202    5.45574653169816   17.98072845217778
H         3.92333955981562    5.47768356456475   17.08401681000621
C         4.60414324049188    6.56844797869274   18.79661927506450
H         4.05338446974480    7.45993325228824   18.53209836396119
C         5.38160030413569    6.55885387226459   19.94894880636832
C         6.08454747501913    5.40228960676521   20.27426075269182
H         6.69298809294645    5.38313063211741   21.16661563675768
C         6.02069357949531    4.28827658901791   19.46250699952744
H         6.59925657041582    3.38999706725391   19.72581710501335
C         5.48014699849542    7.76597378363701   20.82734734978844
H         4.80533949716879    8.55029150575318   20.49429894726354
H         6.49799512334263    8.15442917421095   20.81250416646301
H         5.23984976192650    7.50828821311617   21.85782103564915

