58
CSD_code = HAKMAK | q = 0 | S = 0 | Stoichiometry = C27H26Br2P2Pd | MND = 4
Pd        5.27572192124181    1.99242532253984   -3.73158800972261
Br        5.89305734069180    1.73231174785513   -6.04230907351901
Br        7.33676047633283    1.20061168817210   -2.79052464478743
P         4.53275161408267    2.48377625944309   -1.67195567048486
P         3.23253294734119    2.59464830024693   -4.43098566326213
C         4.90302056499608    1.68495951869277   -0.09629326018733
C         6.14490474801738    1.94076153394745    0.48500697027599
H         6.82300152905002    2.63881673385173    0.01325998847247
C         6.50990934878163    1.29175573761584    1.64492423350658
H         7.47465639045316    1.49140438111059    2.08726734104619
C         5.65747936648725    0.36943593077530    2.24624788867942
C         4.42880281389524    0.11047426903734    1.65163479375469
H         3.76006825804619   -0.61077585130864    2.09980622696910
C         4.05328742089791    0.75047027001081    0.48522256564370
H         3.10077539195828    0.51685832610190    0.03011833310578
C         5.04700487704928    4.21134171170702   -1.42316472828357
C         4.69897889993025    4.90830475957610   -0.26944286964464
H         4.14680115562770    4.40534528527629    0.51352696923634
C         5.07322666368613    6.23089213053810   -0.12557763355956
H         4.80412910625505    6.77135748390293    0.77001997275184
C         5.79635183407940    6.86233036424484   -1.12641373064328
H         6.08813150251315    7.89516118478641   -1.00836721554082
C         6.15394825779124    6.17054635455218   -2.27203300979826
H         6.72642536798581    6.65977352000925   -3.04572872011907
C         5.78181480038642    4.84618420930679   -2.42243803955802
H         6.08529988806891    4.29554148125841   -3.32673255590417
C         2.68441627541721    2.64587059106911   -1.74105387333082
H         2.25866983911079    1.63609341040826   -1.76427717766506
H         2.31416123076305    3.16313200071277   -0.85057996976386
C         2.31810506828714    3.38712493607638   -3.02104517457296
H         2.64055553875863    4.43133252210173   -2.94691702119254
H         1.24039825401157    3.36610947489486   -3.21001084147553
C         2.79629719304198    3.55703671084027   -5.89792923223432
C         2.69246561440663    2.89833383217363   -7.12138041605908
H         2.81698675124542    1.82522714736263   -7.16486075592381
C         2.44979499167369    3.62074305760533   -8.27379514431575
H         2.37140397876701    3.10754892260184   -9.22007164549342
C         2.32184532024375    4.99925175731275   -8.21629986086745
H         2.13618935693643    5.56256423026713   -9.11847981721411
C         2.44963170723913    5.65896402613389   -7.00477619904660
H         2.36741787637278    6.73516867001952   -6.96244762484599
C         2.69669713726850    4.94434938680556   -5.84713396120871
H         2.81999988253009    5.46775933760250   -4.90862557509252
C         2.33090774016179    1.02721197122316   -4.61632331563162
C         2.99253960879715   -0.16371188744980   -4.32445163242292
H         4.05345533694249   -0.15390490963398   -4.02987790139038
C         2.32172642556779   -1.36989781786786   -4.42501039742705
H         2.83713916388397   -2.29232295777873   -4.20357908213897
C         0.99338553533536   -1.39047014660737   -4.81716744395357
H         0.47129326179972   -2.33190407523033   -4.90020509104888
C         0.33276154529282   -0.20717816512560   -5.11188810008465
H        -0.70113128876533   -0.22827170074186   -5.42369288495249
C         0.99632114439643    1.00092045810162   -5.01245313799334
H         0.49055718028695    1.92676931579533   -5.25359437843184
C         6.06936958204519   -0.32332758460559    3.50681770007395
H         7.06672700168294   -0.74493796310824    3.39772569174009
H         5.37583688275435   -1.12053978660190    3.76132982844780
H         6.09833237810214    0.38724258239764    4.33287397707234

