71
CSD_code = HAKMAJ | q = 0 | S = 0 | Stoichiometry = C31H32N4NiO3 | MND = 4
Ni        0.01943324954592   13.43089302678519    8.07735483620796
O        -0.29699588813074   13.80213971424427    6.28258506109864
O         0.14384590508589   13.11684029739305    4.21930707736335
O        -0.95376676421668   13.00502147188368   11.82681669523014
N         1.30030139699134   12.24353542394957    7.48567905616003
N         0.26240563511381   12.99340778912398    9.86583342407091
N        -1.42168706776675   14.67701150508264    8.65760242047690
N         0.58715372436817   10.59883650987290    5.94924144788075
C         0.26921564146140   13.03905382470645    5.42531878416465
C         1.15369276410407   11.92649327896215    6.05924972096818
H         2.13424701316876   11.91153809099775    5.56327475665889
C         2.16567936618269   11.58448855315101    8.18127700696500
C         2.37295449987938   11.81178927945829    9.59253913895441
C         3.55706085609964   11.32796639876976   10.17176218421247
H         4.25818518775673   10.79434619035694    9.54763340906866
C         3.85280419170394   11.54048120266861   11.49482502090949
H         4.77448450222231   11.16889681409214   11.91546761835859
C         2.95018030221956   12.24883192942831   12.28184454423102
H         3.17309105474067   12.43826058050134   13.32142716487373
C         1.77236296969867   12.71311884303848   11.74999912762324
H         1.08531398726112   13.24916150500861   12.38156308782717
C         1.43401158444688   12.50828084895819   10.40063666124220
C        -0.78903338226953   13.31779295234366   10.66008197882512
C        -1.88504745783947   14.10814880809545    9.94034148936062
H        -2.20588591282174   14.90878478246881   10.62109369498318
C        -3.08898235175212   13.20155655879776    9.59731032770497
H        -3.98847630373683   13.56624628051053   10.09303092498602
H        -2.91895745770757   12.17710413152066    9.92605270163200
C        -3.21662719983299   13.31518109217214    8.07702348164436
H        -2.59739350333391   12.55909441732852    7.58433275245689
H        -4.24192307912355   13.21729505689350    7.72762602633637
C        -2.61969571390350   14.68596191772505    7.80500363173021
H        -3.30352092040181   15.48072304693140    8.13287772515631
H        -2.34501402704048   14.83873314037231    6.76161297120245
C         0.69457969769611    9.95750839523968    4.65009693465251
H         1.73235010939690    9.65547009347756    4.48755726344229
H         0.39366441679955   10.63682906332811    3.84147933940510
C        -0.26634999997729    8.76103408303052    4.74296639644878
H        -0.90085904670153    8.71194710643330    3.85940799551533
H         0.28102955657060    7.82296563239172    4.81977394357418
C        -1.09812994446679    9.01779803178050    6.01242833187962
H        -0.74936752636956    8.38429381459950    6.82752484760672
H        -2.15988732947832    8.83399744573832    5.86026307134483
C        -0.80683124247584   10.47930496565973    6.33590481209092
H        -1.45990612085700   11.13828685321971    5.74011828423219
H        -0.91985052626848   10.72405710957893    7.39995805973406
C         3.00619222992146   10.54885426807890    7.52363880518562
C         2.62233785517264    9.21577894599257    7.58794350786013
H         1.73278004621145    8.94580119582944    8.13488025646096
C         3.37406564206277    8.24884438557805    6.94554923128878
H         3.06914489229889    7.21406343446434    6.99282096930839
C         4.51302780810521    8.60422034726016    6.24212334581024
H         5.09634368414634    7.84827582646191    5.73781506886674
C         4.90402802955502    9.93113694081824    6.18621523217996
H         5.79377900654563   10.21244575133717    5.64267031644442
C         4.15265576810457   10.90403518565101    6.82244608857136
H         4.45612403396827   11.94071783372048    6.78109670891770
C        -0.85065272866422   16.02857202296145    8.80309200086222
H        -1.50487245403755   16.64627378542489    9.43437564129333
H        -0.80018460046035   16.46930517661781    7.80329867928967
C         0.53556675116971   15.93821229890475    9.38709388569071
C         1.58749262664073   15.53268993813492    8.55926154990363
H         1.42953642223567   15.45004419799052    7.48500432556138
C         2.85247208028321   15.33586978469957    9.09180191213883
H         3.66447916452904   15.02735004346655    8.45003804777199
C         3.07865919366670   15.54268920785895   10.44293883484919
H         4.06134053635586   15.37716533365491   10.85805181807414
C         2.04513649153743   15.96695862190888   11.25883227167140
H         2.22197474056410   16.13904489573398   12.30978599854109
C         0.77732420694530   16.15965924232157   10.73480279847381
H        -0.02711027290254   16.47758347706016   11.38261747449196

