53
CSD_code = HAKNOW | q = 0 | S = 0 | Stoichiometry = C25H24MoN2S | MND = 12
Mo        3.13783499562677   14.18626192405326    2.99938040855539
S         4.05975666632002   12.53927951890009    1.43471628008948
N         2.82264598062431   12.26357190292493    3.58346281917351
N         3.62036728706777   10.19185051340179    2.80378856248141
C         1.48717692547645   14.03588632906072    1.31577814671864
C         0.76340573553101   13.87561350567539    2.51552702386194
C         0.95153444859662   15.01929346202884    3.30168924855930
C         1.76420277870509   15.92971293695597    2.56046625648879
C         2.10739374182099   15.31471788049664    1.32610821007848
C         5.26611326454999   13.95999502555130    3.78285374310018
C         5.19070246581012   15.14382009816875    2.98085378592997
C         4.37384159875954   16.05795825495461    3.67283463214861
C         3.96153852491615   15.45966105002568    4.89692280079323
C         4.53599793248493   14.19176104176351    4.97882634449246
C         3.43657286724954   11.43618713376339    2.70511616510364
C         3.89917902232283    9.46036502579256    0.49767848351755
C         4.47497667530456    8.58057887376490   -0.39631868391870
C         5.37554524540506    7.61101419073562    0.02681732900860
C         5.67719789845215    7.53640891663409    1.38185051261161
C         5.10305048630782    8.40331090000995    2.28801081899512
C         4.21553528511754    9.38843847942836    1.85444249499731
C         5.98197434520901    6.64904826731424   -0.95127544443945
C         1.63103740236397   12.71591032220237    5.61859554128864
C         0.82590714862972   12.31885239606305    6.66637142490019
C         0.39669494006823   11.00374080492102    6.78873832698072
C         0.80832484481997   10.10033790587575    5.81836321145187
C         1.61461312149802   10.48415334002240    4.76567369037698
C         2.04944614662956   11.80807422503742    4.64142604201118
C        -0.46563263484569   10.58211935880019    7.93989783773075
H         1.43994110665370   13.36982060734179    0.46266119210048
H         0.13207571744282   13.03065929102951    2.76171702893000
H         0.42861792166882   15.24565962620174    4.21810438324290
H         1.86106829454692   16.98462249379772    2.78733358725178
H         2.55367474491461   15.79731588078751    0.47106625163376
H         5.98013334104653   13.15440621757862    3.63796218685297
H         5.80110243514014   15.35300965781430    2.11660852792934
H         4.24595233947724   17.10175824991270    3.41745151606744
H         3.39623264998563   15.95636004750387    5.67302372284822
H         4.48589480678656   13.51503566097227    5.82060124772720
H         3.19289577654572   10.20266945928767    0.15549450761967
H         4.22104175563411    8.64850084299908   -1.44535433126352
H         6.37248380419398    6.78540327922460    1.73121420992846
H         5.34167143998881    8.34403175858081    3.33947450907628
H         6.94239189121392    6.28517166413115   -0.59276347418208
H         6.12356138995507    7.12121358739665   -1.92128180433835
H         5.32522719098063    5.78864230901454   -1.08909339789177
H         1.94295006552529   13.74571779845135    5.56161865251542
H         0.52433136469433   13.04814735495452    7.40591424830118
H         0.48992899892286    9.06933937623525    5.88208988879707
H         1.92023656290076    9.75928358151981    4.03035596997078
H        -0.90856310226228    9.60659430900599    7.75529256929145
H        -1.26285442159674   11.30405507899781    8.10973530473082
H         0.12786878486402   10.52035828296125    8.85277748988596

