41
CSD_code = HAKPUE | q = 0 | S = 0 | Stoichiometry = C12H22Cl4S2Ti | MND = 6
Ti       -1.71529963304521    2.46269738051514    8.55625829343039
Cl       -0.91749924187025    3.62301323187892   10.16499027115989
Cl       -0.34957378149557    3.00573305605608    6.97202436222423
Cl       -0.76250652604923    0.53646907039375    8.98110554098356
Cl       -3.37145900897155    3.76456653907173    7.98106068358250
S        -4.72694762122842    0.22695717024426    8.50447693438917
S        -3.91025207073518    1.34111305390263    9.99683536214581
C        -3.56741974178646    0.51271586185136    7.08752060367669
C        -4.28591807166362    1.18095919712836    5.92913299872478
C        -3.25241931793243    1.55006912259112    4.86505409532052
C        -2.49487048182557    0.30791533514809    4.40369246026987
C        -1.82419183672722   -0.38694767622658    5.58552383858487
C        -2.85721349933799   -0.75545112230049    6.65218677463307
C        -3.17223307941863    0.06551434968203   11.12599249683412
C        -4.27724800225924   -0.71958384769265   11.81172858635361
C        -3.65848230372713   -1.72324374666561   12.78320198059304
C        -2.78844547936218   -1.00304127739366   13.80896397380555
C        -1.69663232041318   -0.19760456198935   13.11113779461427
C        -2.31024659254854    0.80621101379368   12.13603348869867
H        -2.80405365536554    1.23159435304034    7.48684110130841
H        -4.80121769702906    2.07769686702795    6.27996756567745
H        -5.02801430041260    0.49323174956450    5.51736212785377
H        -2.54825343071278    2.27591558638467    5.29157038284874
H        -3.75120864090086    2.02180490577273    4.01777987591850
H        -1.74114133921284    0.58871385584380    3.66714011909795
H        -3.19161664047704   -0.38376074338358    3.92428305222356
H        -1.07756205267614    0.28397349043046    6.02974624777067
H        -1.30980075656984   -1.28773607560314    5.24867768657284
H        -3.58741601913169   -1.45948127505202    6.24704676408683
H        -2.36050306147502   -1.22164104100561    7.50589221287382
H        -2.55694998758541   -0.58678377973955   10.50103049330042
H        -4.88539697985335   -1.23593233385697   11.06605520263739
H        -4.92351245612108   -0.02832502093509   12.35664339424131
H        -3.04849251285742   -2.43709488847521   12.22582206046661
H        -4.45111555873136   -2.27858338966674   13.28664822931342
H        -2.33610849456137   -1.72902921146086   14.48641517284775
H        -3.41059327148490   -0.33140955562084   14.40435404780399
H        -1.03875747755816   -0.87250963198197   12.55982453767219
H        -1.09303718371200    0.33415585211260   13.84784795178244
H        -2.92974459721651    1.52316144773846   12.68157491925409
H        -1.51754527592169    1.35877668888462   11.61925631436017

