26
CSD_code = HAKPUF | q = 0 | S = 0 | Stoichiometry = C12H9CrNO2S | MND = 9
Cr        9.47596443342784    0.77469329739172    3.48159491361345
S         7.72951122889196    0.82129898555765    5.29722241339285
O        10.16397372665071   -1.77829239021556    4.86397726283630
O         9.46735108288299   -1.74168424165909    1.88663230079243
C         9.89769804925593   -0.79003988365859    4.32553397819740
C         9.48180749236472   -0.76236941944257    2.50785811903554
C        11.08696636718029    2.05826115664999    4.33738301139088
H        11.64013990325097    1.91133439729737    5.25271450173236
C        11.48182474326016    1.62008493308998    3.05022453562188
H        12.40032687090072    1.10142437865517    2.81144478655665
C        10.57464042004937    2.16872500586242    2.10962048065300
H        10.67470676551094    2.11787390004472    1.03588947382304
C         9.63423155976802    2.94061755692311    2.81745687020495
H         8.87442651913396    3.57161906900998    2.37690441782137
C         9.95162229190077    2.87642106234360    4.18628065844068
H         9.46946031760119    3.43835349816512    4.97274238944479
N         7.54778688186938    0.90817471402111    2.79260424551132
C         6.77589127791319    0.97816727817096    3.89134793119343
C         5.39039797600591    1.16350196445136    3.81288503646256
H         4.81325042090361    1.21356929887601    4.72152867383136
C         4.81971414775372    1.26928034858741    2.56637907211489
H         3.75449121516726    1.40844232271109    2.46234301020234
C         5.63092102327921    1.19202197017971    1.42949752273536
H         5.20686106315087    1.26957251870085    0.44208404894949
C         6.98718445914294    1.00838425364871    1.59016693802558
H         7.65654976278332    0.93216402463791    0.74398340741591

