83
CSD_code = HAKQES | q = 0 | S = 0 | Stoichiometry = C42H34BrNO2P2Pd | MND = 4
Pd       11.91045818599278    3.70357822697704    9.93753734294256
Br       11.91107703214738    2.08586964962469    8.11962783498543
P         9.66384523347480    3.82875851090446    9.95263347107936
N        11.91059170014362    8.51668998987997   12.32104162122295
O        11.91066868721235    9.20197067090714   13.32485595151173
O        11.91027773926443    8.96663196434799   11.19129911195275
C        11.91055251657725    4.90891573466695   11.48375344088164
C        11.91041780300680    6.28674272902490   11.34446547734146
C        11.91048107550093    7.09271613978981   12.47642689548443
C        11.91050785899227    6.54354525998289   13.75404385885627
C        11.91055291388436    5.16940575724103   13.88893339456965
C        11.91064835019565    4.35971550661410   12.76131659999325
C         9.05266043315055    4.05061137517875    8.25921381470819
C         9.85871825171385    4.85842167074459    7.45796639048108
C         9.51799949684468    5.09603844427486    6.14215419952204
C         8.37360848506505    4.51535800938527    5.61700300040312
C         7.58104052672863    3.69866889342221    6.40536745916028
C         7.91533995691041    3.46094617387907    7.72793170410130
C         8.93770392476954    5.22542531411126   10.86587950420417
C         8.74856431276992    6.46213634249124   10.25784024637082
C         8.39012340367309    7.56184732257102   11.01674490307967
C         8.22623438235995    7.43873190933013   12.38625546225383
C         8.40630580071952    6.20730592756994   12.99650452797292
C         8.76498337252025    5.10669725179643   12.24311856056720
C         8.84116375722192    2.38434366657529   10.66589339736483
C         7.47158169009109    2.34285858145276   10.91169695165910
C         6.91175767287934    1.20649213385933   11.46481642561334
C         7.71091770354613    0.11841047352894   11.78265835977463
C         9.07714179751278    0.16544238724718   11.55957956436927
C         9.64223382645702    1.29878884202335   11.00438151141668
H        11.91057046689947    7.19885742471225   14.61096768488114
H        11.91050931922685    3.27687143546128   12.88432613478983
H        11.91060078979325    4.72668083449848   14.87446395602970
H        10.14498713486907    5.71825773302938    5.52078776869732
H         8.92010198672581    4.14758184017777   12.72049173142149
H         8.10851116195935    4.68857681509420    4.58473943953361
H         6.85757153880967    3.20420537770025   10.68430349309486
H        10.77092179313000    5.28258812781887    7.88631864269828
H         7.96393704837586    8.30199866497979   12.97916899919897
H         7.26522696475151   -0.76653406876482   12.21221998131941
H        10.71645217107837    1.35230987393114   10.82016051769643
H         8.27864853003920    6.10853735472074   14.06445885095647
H         7.30728148912726    2.80499985524082    8.33364295073119
H         5.84864660820585    1.16821130883656   11.65225636996861
H        11.91043623446260    6.76184122191183   10.36774695408604
H         6.70058952555124    3.23438183951947    5.98611918896509
H         8.88301993632491    6.56459418994699    9.18942552802136
H         9.69771704293032   -0.68012028738948   11.81623923935002
H         8.25286291840873    8.52042988073037   10.53916971545927
P        14.15700598929772    3.82882176929033    9.95243639266311
C        14.76840924591952    4.05041573510261    8.25905321358768
C        13.96246890754380    4.85812172229709    7.45758452127071
C        14.30332202627403    5.09548284972850    6.14176064088747
C        15.44774651670712    4.51467815106860    5.61681926426493
C        16.24021302556763    3.69810774800359    6.40540509049878
C        15.90576607968945    3.46061434238365    7.72797392206229
C        14.88322627143509    5.22558210587817   10.86547528549948
C        15.07228734392246    6.46223597494125   10.25728832482284
C        15.43067721202281    7.56206188299840   11.01606091978277
C        15.59461233835610    7.43911490199545   12.38558257323243
C        15.41459995364557    6.20775089709817   12.99597789721442
C        15.05597183369373    5.10702836562270   12.24272490380395
C        14.97967728485960    2.38452253430993   10.66595973240777
C        16.34927265694240    2.34302936410384   10.91172094366604
C        16.90906694134452    1.20675816080542   11.46507365295511
C        16.10987323750018    0.11877057139218   11.78317494080748
C        14.74364361862526    0.16581395138980   11.56014611583096
C        14.17857526701652    1.29906858334557   11.00473048137702
H        13.67641130771503    5.71760581583075    5.52022246704791
H        14.90084896623046    4.14797955694645   12.72022564991958
H        15.71296800338575    4.68773950044604    4.58456250440668
H        16.96329611746342    3.20433186559264   10.68419858343946
H        13.05019256234424    5.28230469714867    7.88572862033266
H        15.85701164973183    8.30242942425028   12.97837162610686
H        16.55555426476251   -0.76612825381475   12.21284147400187
H        13.10434454056897    1.35259547364709   10.82056044894001
H        15.54233606197630    6.10909718775136   14.06393329653061
H        16.51374740862079    2.80474438008988    8.33384301756147
H        17.97218824268560    1.16846833563743   11.65246120752816
H        17.12070377094892    3.23374150481467    5.98633160535963
H        14.93773681102450    6.56457702264205    9.18887348952517
H        14.12305000373086   -0.67968101739414   11.81698631390175
H        15.56794398650740    8.52058061326675   10.53836274811883

