41
CSD_code = HALBEB | q = 0 | S = 0 | Stoichiometry = C17H18N2NiO3 | MND = 5
Ni        0.39061731983275    4.48527998139769    6.02390967763103
O         0.95105233580908    3.18654723444773    7.27302705131286
O         2.66434417772725    5.28804958256211    6.03738495543189
N        -0.29256422231780    5.57518551513138    7.47250873246325
C         0.45165447041998    2.90410796389361    8.41345580804267
C         0.73023654345898    1.64889995032227    9.01741748304379
C         0.23304194812546    1.32878955778832   10.25020117118839
C        -0.55797595316699    2.23450136510683   10.96859720893797
C        -0.83269493888262    3.46222106344910   10.42887265015790
C        -0.34777908577999    3.82265772879564    9.15961771475050
C        -0.57951484291921    5.12505243631105    8.64927733790213
C        -0.47061121342662    6.99905857316001    7.27512628696181
C        -1.29503659709655    7.31347576920972    6.03124843206845
H         1.34002730575957    0.95497210684234    8.45929514727392
H         0.45166324864594    0.36148276713607   10.68020197120364
H        -0.94067932688211    1.96289349992746   11.94042374020765
H        -1.43635466774722    4.17537307819333   10.97413564356890
H        -1.01597300928419    5.82434669827519    9.36985684481400
H         0.52233569347114    7.45157465184551    7.16659003844658
H        -0.95654701634333    7.44533938299911    8.15476022924959
H        -1.54722964202396    8.37519352894242    6.03238656988616
H         2.88182589894579    4.74023758279100    6.80112608432485
O         0.97723689586075    3.20790134248661    4.76823776460185
N        -0.31792647920232    5.57015660777518    4.57484550720474
H         2.88503864378454    4.75093268999648    5.26696140396480
C        -0.51360622732158    6.99325166651961    4.76174155826666
H        -2.22232174066959    6.73627034378645    6.04885553027790
C         0.46917325703532    2.90954211734893    3.63574763180561
C        -0.61142103675561    5.10746094549135    3.40442090820886
H         0.47508281322143    7.46359809908186    4.82692333843300
H        -1.03901376221394    7.42044262043699    3.89529758067755
C         0.76977483723967    1.65964416721067    3.03149517461914
C        -0.36088935547083    3.80712702423200    2.89749198822578
H        -1.06936310611295    5.79441070887737    2.68519934994663
C         0.26311903504407    1.32363768440684    1.80682261422289
H         1.40409682086725    0.98250558607987    3.58287196106764
C        -0.85559496855269    3.43055533538370    1.63679066869858
C        -0.55989474811355    2.20755161475515    1.09734452768905
H         0.49887986833885    0.36046551982408    1.37660447195499
H        -1.48344164003208    4.12734597343216    1.09772769465317
H        -0.95026753327182    1.92335993434701    0.13219954661254

