48
CSD_code = HALCOM | q = 1 | S = 0 | Stoichiometry = C16H22N3NiO4S2(1+) | MND = 6
Ni        3.08990631713951    3.93753289621464    0.72921085235779
S         4.85533259786050    5.59188545371774   -0.06621707297057
S         1.46317596502068    5.88853214278831   -0.01119988629236
N         3.01154132012047    4.71827802229926    2.47279040175033
N         3.13948917799875    3.26257575962644   -1.04040897638779
C         1.78990914993826    4.61591867137430    3.00840798823848
C         1.47080203677755    5.07134768026821    4.27339981002328
C         2.45934530318856    5.68212945156586    5.02598368279629
C         3.71398922034860    5.81633559891420    4.46184711463549
C         3.97480629902061    5.32524343086135    3.18471413036507
C         5.35845260361197    5.51942056722190    2.62511573264789
C         5.37972808031220    6.47930191298726    1.43973940959199
C         3.93192031898125    6.87557593587796   -0.96589684067387
C         2.60243672792236    7.27320969070756   -0.34296867910533
C         0.96363543248420    5.41249298783213   -1.70258389597160
C         0.87122585811322    3.89707812487040   -1.84070768999205
C         2.19899850992959    3.21240859572184   -1.99480995211331
C         2.43226590251249    2.50352383178122   -3.17469570304346
C         3.62588964490335    1.84139748561095   -3.37746327908365
C         4.59809371921907    1.93150146650281   -2.39316855046612
C         4.31198548983623    2.65484415690741   -1.25380547918534
O         5.04384076726920    2.66581731878872    1.78171363018227
N         1.40143441303474    1.79422801001236    1.21048375241951
O         2.64930107310950    1.87292488674362    1.36818012402902
O         0.84601350417557    2.84003807104169    0.83605022985258
O         0.81330385484324    0.77463126925942    1.41352446007732
H         1.01958185930533    4.15871166769401    2.39831991420234
H         0.46886394017120    4.94608510319777    4.64839028940358
H         2.25928879107790    6.05049258025541    6.01971935879248
H         4.50784086847092    6.29809577672746    5.01053979404667
H         4.78933773073796    2.56987178759735    2.70510952861791
H         4.86875390601691    1.79292507379715    1.40996007688569
H         1.65776331984576    2.46957853527961   -3.92425568715445
H         3.79694200066765    1.27717716739117   -4.28054684165711
H         5.55682937166403    1.45222586984306   -2.50009166579299
H         5.06429752322452    2.76288168882523   -0.48264698859140
H         6.00220233473807    5.91635454967054    3.41042553834649
H         5.77308975260799    4.56515050377518    2.29557980973686
H         6.39597119587953    6.82925928971067    1.25996688669158
H         4.72448889665203    7.33414660684857    1.59783812553762
H         4.58009373978950    7.74861032805523   -1.04717776989640
H         3.79096748584113    6.45825961636311   -1.96353073379728
H         2.08939027291184    7.98044439331034   -0.99473251276217
H         2.74708024660487    7.74654603387836    0.62840468157188
H         1.67127688662897    5.84172350341408   -2.41021605228943
H        -0.02057500084795    5.85093184083266   -1.86513412561247
H         0.36620653465515    3.49994514652392   -0.95461177792326
H         0.25548505580101    3.66690951742003   -2.71044516206319

