61
CSD_code = HALGOR | q = 0 | S = 0 | Stoichiometry = C27H23MoO9P | MND = 6
Mo        4.75829806467727   11.38244416275769    1.37538381937904
P         2.79237795179952   12.60780556920362    0.59141064486419
O         5.07034309900233    9.72529806959296   -1.22605465738877
O         2.86450617640543    9.29291600050079    2.67361038770147
O         4.66451717725927   12.62365890692275    4.21082012786850
O         6.33413405728902   13.77587941888745    0.18500223799758
O         7.23804331379318    9.84839433587279    2.41326128214028
O         4.05485348690727   12.67022556255783   -1.84080009580923
O         3.86614236975303   12.41380361984621   -4.15589067366340
O         3.67637825952738   14.59861503953140    2.26671204182990
O         4.00812419777135   16.76958179842442    3.07481888493334
C         4.91453577764969   10.37605505204452   -0.30077541046087
C         3.56749460108205   10.03174350178633    2.16092288063650
C         4.67231857273387   12.24410785030164    3.13415397860445
C         5.80954174951871   12.86276464098946    0.62196587619229
C         6.32716840518867   10.41649085187785    2.02384938983378
C         1.82590426085486   13.21816700949384    2.00039266550649
C         2.45604121601490   14.21515730084324    2.75993182005625
C         1.84446116333046   14.72648853156767    3.89199196378300
H         2.30575320187459   15.52217351501320    4.45519308167136
C         0.62027695439665   14.20829730859270    4.28899559965981
H         0.14592865108694   14.60199880386370    5.17524249932312
C         0.00944772655347   13.19743780048035    3.56881401632752
H        -0.93689473119616   12.79449003627152    3.89597899485974
C         0.61049556783531   12.70281456680601    2.42238569742335
H         0.13811792203515   11.91290033560741    1.85514046260848
C         2.84291967186801   14.09271647633317   -0.46692889687348
C         3.53058866348022   13.92327686854657   -1.67415213434394
C         3.61105442034478   14.96060582407957   -2.59003073758106
H         4.11810970725896   14.83010171060618   -3.53214096408603
C         2.99581005164459   16.16839496352746   -2.30114113454214
H         3.05728887887324   16.97562461637431   -3.01530241591560
C         2.29172707280905   16.33846772593544   -1.12303537722696
H         1.79554757194407   17.27535095111783   -0.91706719867562
C         2.21145424205820   15.30010724474622   -0.20858703589480
H         1.64626417263339   15.42998472130405    0.70343138354509
C         1.51857858592045   11.69778096203449   -0.34831293791789
C         0.42214000839941   12.37752784312717   -0.87820908364761
H         0.32152002875551   13.44192820766925   -0.71544703578116
C        -0.53448912639240   11.69731330798838   -1.60770164420723
H        -1.37977754184882   12.23242554259798   -2.01519424886487
C        -0.40972986629484   10.33256738242112   -1.81835819968134
H        -1.15586938013721    9.80365284304826   -2.39239114304036
C         0.67238812138464    9.65031902035939   -1.28953691389874
H         0.77174665365662    8.58655157309161   -1.44752225416699
C         1.63218222764969   10.32989770669183   -0.55779178023603
H         2.47715318687779    9.79287963097932   -0.14686901083612
C         4.47524890214167   15.46621171969164    3.03489955842421
H         4.52713209027107   15.12202129622223    4.07643602974028
H         5.47155559209738   15.40718051650184    2.57064301780965
C         4.23090904071068   17.49928268959573    1.88283840697608
H         5.30471596947406   17.61938424086844    1.70256075909612
H         3.77190242717735   18.47352374909759    2.03395063736922
H         3.77712298141508   17.00225412047656    1.02099948904701
C         4.70598697651469   12.37700762251066   -3.05332537557741
H         5.51077928059658   13.09779177766353   -3.24964317968444
H         5.13243750838954   11.37436286397521   -2.90901299167672
C         2.88515413531674   11.39456569624884   -4.15695222269302
H         3.35587029598439   10.40634380971640   -4.12397650429467
H         2.32953263765029   11.51019554673216   -5.08423079562001
H         2.20583561825613   11.49438963847886   -3.30475558091961

