71
CSD_code = HALGAD | q = 0 | S = 0 | Stoichiometry = C36H29ClO2P2Pd | MND = 4
Pd        5.38541388456400   10.47134887293497   11.83428291453283
Cl        3.50858625399557   11.10948696626191   10.69707830608032
P         7.24876283859473   10.11690266338273   13.02421630853342
P         5.20957374363710    8.65655353714236   10.56940669814841
O         5.27467872301416   12.16220620721685   13.02619343050990
O         3.58851200000933    8.75228264430909   12.95077226498837
H         2.98216650562505    9.13330685245771   13.60297210143903
C         7.06426982164734   11.32663472749671   14.34527320672698
C         7.84398363671184   11.40468617511452   15.49226059816348
H         8.59489541543569   10.64834713686560   15.68329437267738
C         7.63510402629852   12.43222879595427   16.38776796626554
H         8.22648717298599   12.50078884987897   17.28828186131306
C         6.65333173529826   13.38377790332951   16.11876606468338
H         6.49926887573008   14.19462935946741   16.81734869932605
C         5.86853087918493   13.31201727452722   14.99348467502832
H         5.10308255369489   14.04808900502364   14.79772186389146
C         6.03329112694788   12.26092760221687   14.06328650984858
C         7.63093085352125    8.55619931660036   13.86277852081214
C         6.57142652658755    8.04017062275852   14.60705351541268
H         5.63468154905585    8.58923430475966   14.62317172951521
C         6.71764266412166    6.85421582568507   15.29656441765227
H         5.89711431799397    6.45592044669884   15.87528211190395
C         7.92479592927937    6.17293479438010   15.24368179329861
H         8.04548251183327    5.24671768494227   15.78597797576776
C         8.97260234428749    6.67415465012591   14.49122571004611
H         9.90873257198244    6.13676312026085   14.44519374620719
C         8.82918973875057    7.86090535041394   13.79248220286592
H         9.64346129446281    8.23914203443731   13.19195625341322
C         8.73050754891077   10.65620173395481   12.11366956380589
C         9.98413818967379   10.78938733788181   12.70278641666238
H        10.12132016544355   10.53201226631677   13.74321576194770
C        11.04645917890099   11.27060489801790   11.95909423063588
H        12.02019308314562   11.37063324292983   12.41632587355789
C        10.86395739310728   11.63391658045052   10.63395403364317
H        11.69774703626563   12.00926060486544   10.05923248952192
C         9.61060076826959   11.53313763506521   10.05139899393247
H         9.46411382897097   11.83510882377777    9.02465992800976
C         8.54582884040697   11.05045427693996   10.79016329652699
H         7.54549652613007   10.98410804590785   10.35099436887063
C         3.52899509860052    7.98001554636522   10.70771467315125
C         2.87655355150440    8.19260026388680   11.92974317850786
C         1.54982670003113    7.81839927686759   12.08221514620969
H         1.04263473438496    8.00912795856290   13.01847572171864
C         0.87613896071249    7.21975952452854   11.03166839473756
H        -0.15737700671071    6.93420728027969   11.15629578443756
C         1.51762402947465    7.00017566509078    9.82512410989443
H         0.98589196369345    6.54324776367184    9.00472171759439
C         2.83511822942791    7.39079461526067    9.66028760205970
H         3.32359226044298    7.25866127244320    8.70651057776744
C         5.54489244636931    8.85747439091735    8.79766572098376
C         5.74234006326714    7.76109384397062    7.96158494931919
H         5.69348302230148    6.75940263628779    8.36750857822542
C         6.01582902277187    7.95887554479421    6.62070286196039
H         6.16211853611671    7.10808311306301    5.97111971446701
C         6.10589990174763    9.24470560265360    6.11033963618845
H         6.31896640397753    9.39294702868823    5.06192393080165
C         5.92930082539965   10.33730715890460    6.94331179204998
H         6.00642492196570   11.33843761740969    6.54600287030020
C         5.65174900926054   10.14656636140526    8.28537610398581
H         5.49497524668132   10.99701506006376    8.94508599018950
C         6.28459302246193    7.24822289837384   10.99300184577160
C         7.62947075954976    7.32960528656775   10.63905802225138
H         7.98204611165702    8.19656656571096   10.09354352488374
C         8.49934104332065    6.31064704498219   10.97235671143539
H         9.53834127747352    6.37203497785335   10.68316733190425
C         8.03946278657043    5.21194697741710   11.68201945724168
H         8.71960160308865    4.41540224765071   11.94430944606644
C         6.71011902749974    5.13937686222353   12.05969391030547
H         6.35416975822759    4.28827917358348   12.62139784817348
C         5.83211198244637    6.15271710010994   11.71684307902600
H         4.79190265179327    6.09370516966151   12.00495899218270

