91
CSD_code = HALHOS | q = 0 | S = 0 | Stoichiometry = C44H39N5P2Ru | MND = 8
Ru        3.51591806795675    3.78922613482132   10.12015337352338
P         1.75674331300232    5.20905569496717   10.42224541592472
C         2.02424874105362    6.91623742354416    9.87518808369535
C         2.56753781182548    7.82121202303158   10.78612225030892
C         2.92389050944539    9.09261697639888   10.37909692036141
C         2.75334870861839    9.46820098708474    9.05578544583988
C         2.22514219892126    8.56883377255899    8.14411377033313
C         1.86641743163845    7.29390471469123    8.54473772586221
C         0.92514073899507    5.39987315109909   12.03062405704708
C         0.06545984212509    6.46034229046992   12.29733070352428
C        -0.59887364646823    6.51701003369391   13.50884515668007
C        -0.41980900695407    5.51735301557087   14.45292589254741
C         0.42389502353294    4.45194986785801   14.18489672606137
C         1.09332598753907    4.39612314329720   12.97574274918351
C         0.34617974900291    4.57448304200797    9.41383455206744
C         0.22494499616509    3.07815696952753    9.68085901634672
P         1.89889959068846    2.31691341431872    9.43686828121574
C         1.97258241337729    1.86420882177577    7.67145575657800
C         3.24680597287049    1.81359822542846    7.11024208905203
C         3.41880294957646    1.51507251980905    5.77217644109658
C         2.31257547745528    1.26237675969430    4.97619225167445
C         1.04456925729101    1.28565247725760    5.53272578619934
C         0.87035880567991    1.57816718547203    6.87411818691331
C         1.70831062435813    0.68780250560375   10.23197348607816
C         1.26390465797155    0.61357106770728   11.55015515593676
C         1.18331535188051   -0.60651408422498   12.19497544754096
C         1.55939548187111   -1.76651022524339   11.53648599303160
C         2.01581946405786   -1.69958821815696   10.23076461371933
C         2.09465077261759   -0.48038498015742    9.58115635212786
C         4.64932926028163    5.19811151640010    6.10226095902420
C         4.01898508881924    4.87781017992851    7.28714003758559
N         3.58037435518053    4.58108616545640    8.32250810399692
C         5.95378157584238    5.68387855122600    6.27049322064503
N         7.01804453355607    6.06944455742583    6.47695115880129
C         4.09626945461143    4.97473249044131    4.82784393625744
C         4.96047224946681    5.10781126373134    3.71516125821959
N         5.66574522788497    5.20484335745506    2.81686170468105
C         2.76995660276126    4.61414641385799    4.58708335717698
C         2.31985171021186    4.25602569892486    3.30907675752357
N         1.93008112116644    3.92975141216529    2.27788718759153
N         0.98601640300161    4.66541320180173    6.39946706054885
C         1.81122359218035    4.61488918789876    5.59492390509153
C         5.10950310510463    2.33670136762968   10.79459210452696
C         5.29692672111706    0.86103718351412   10.61284374531308
C         5.73401314288725    3.35921942017760   10.03707901924277
C         6.69236069885757    3.14713715381417    8.90556791582535
C         5.49184511083448    4.61745142962204   10.69763864984962
C         6.14163745077918    5.92155045802950   10.34289631068106
C         4.77268227800749    4.34778080054709   11.90092839851009
C         4.56914273261398    5.31626829964289   13.02601795845373
C         4.48232057940030    2.94448353735896   11.94705106367630
C         4.09197752787176    2.17421626467550   13.17774744133159
H         2.69654714422076    7.52007657008705   11.81811908726113
H         3.33975905700958    9.79112144028330   11.09097138119814
H         3.03717848025346   10.45946619207164    8.73536520383049
H         2.09647170388559    8.86058869346113    7.11209226594014
H         1.46756220829406    6.59632140831926    7.82319044740723
H        -0.07517934200105    7.23680924189123   11.55816115565991
H        -1.26213092922734    7.34305695766746   13.71902492592252
H        -0.94057346467033    5.56895789590268   15.39740759617243
H         0.55889085451767    3.66970573562462   14.91826960917662
H         1.76145996868857    3.57681141086601   12.73847364535151
H        -0.57312939689388    5.11261202442947    9.66636635024732
H         0.58760016691531    4.72573154618934    8.35467932089151
H        -0.51524022966099    2.61489868451559    9.02485536950370
H        -0.07333453478894    2.89907342476501   10.71963896498060
H         4.10260078683601    2.02337149057832    7.74161940889973
H         4.41115843302870    1.49134930534221    5.34377725510604
H         2.43764950545298    1.05610683489468    3.92388740269398
H         0.18358333073594    1.08527082787719    4.91281115583512
H        -0.12729360496512    1.58648504880392    7.28613863930434
H         0.97797197546900    1.51603845462683   12.07219521395234
H         0.83055448165635   -0.65407812336907   13.21511827904073
H         1.49922053615253   -2.71877960138325   12.04158231649334
H         2.31350393394199   -2.60085023721852    9.71559184301668
H         2.45262656303663   -0.43297991112922    8.56263297428526
H         4.45911990794862    0.30148947253540   11.02488679749675
H         6.20503542665231    0.54926063239237   11.13392266617908
H         5.40320683311328    0.59431686449313    9.56299220155804
H         6.46308553592743    2.24019113858454    8.34803267007433
H         7.70155646204588    3.04441079030274    9.31092550860624
H         6.69936761450330    3.98758118405396    8.21401828558774
H         5.48747713329324    6.76341645538408   10.56933101233200
H         6.39145204677396    5.96493304399286    9.28436196000465
H         7.06557152707792    6.04057846472694   10.91292128341132
H         3.59279971142464    5.20050895106893   13.49513913574165
H         4.66787540593196    6.34129205246884   12.67661648626214
H         5.33409759629101    5.14140313218282   13.78593844267911
H         3.60513317555333    2.81572439083076   13.90889729798819
H         3.42972547947166    1.34206844323415   12.94027326131681
H         4.99269670756891    1.76222504702391   13.63886024356979

