47
CSD_code = HALNEO | q = 0 | S = 0 | Stoichiometry = C22H17NO5SW | MND = 6
W         7.28000771499081    1.53938273944736    7.37144169998784
S         4.70388012992134    1.19068713154756    3.89777420269966
O         8.11974601392878   -0.81266647449335    5.46685575645474
O        10.14250576191886    2.81220060278928    7.53793016954016
O         8.20466160229738   -0.15915241361595    9.84148146073065
O         6.29392619204452    3.77406145277945    9.34299000004280
O         4.43875574399553    0.20837059878536    7.52722120395211
N         7.19363796840854    3.14018206183158    4.57997902984024
C         6.59541014402452    2.73609264851134    5.66317731786414
C         5.17240701611062    3.03715283104728    5.79471621258669
H         4.88941373977201    3.67218442705687    6.62797151583310
C         4.20722994460219    2.42166913209046    5.08904414020861
C         2.77769431676653    2.56605083259434    5.36619200855485
C         2.25411525679299    3.81282856514744    5.70623927883751
H         2.90650423746463    4.67374674141869    5.75037357622301
C         0.90619608029875    3.95641992028559    5.97109976965655
H         0.51214248043868    4.92819395924725    6.23024759785536
C         0.06138360258833    2.86091603502807    5.90068363275130
H        -0.99227457234231    2.97599944229547    6.10621818086059
C         0.57383608269936    1.61845235306248    5.56795802053813
H        -0.07770364630025    0.75881550316636    5.51826786787724
C         1.92072496714966    1.47055957838261    5.29999864561087
H         2.31643893486419    0.49567585120718    5.05607955822038
C         3.48376918942470    1.40546969919511    2.62295051881703
C         2.94831130916091    2.65151365438457    2.33024333133842
H         3.25911121980896    3.52353293093604    2.88570629554464
C         2.00442346996183    2.76870316597989    1.32690496380609
H         1.57966106360143    3.73746696453393    1.10966256467151
C         1.61187995950772    1.65706249023726    0.60026122695681
H         0.87582545716275    1.75554444416890   -0.18313366912358
C         2.16914794809117    0.41978158253182    0.87869924573968
H         1.87108481591684   -0.44962688193346    0.31201323432289
C         3.10165512703952    0.28943405069720    1.89061463152513
H         3.53552686572103   -0.67169923284082    2.12187301587611
C         6.56955103127177    3.94030439634646    3.54214701365738
H         7.27832992964032    4.68522867647893    3.18081609100151
H         5.68853527902888    4.44411847782599    3.93487949364991
H         6.26777397172348    3.30580466496908    2.70553511473197
C         8.55996867817288    2.79865764589790    4.25982451283103
H         9.19009736622386    3.69036077240958    4.29554338298393
H         8.60046906088188    2.38237986548153    3.25202683744917
H         8.94060998533476    2.06226605630857    4.96443543905569
C         7.83615210477915    0.06597989026317    6.14027967083037
C         9.09540757043287    2.36824500855043    7.40914385224836
C         7.85806776858250    0.45239324132900    8.93962449028657
C         6.66279144791152    2.97704056262855    8.61127981430164
C         5.46600966813036    0.69821435397742    7.44202808069728

