45
CSD_code = HALNAK | q = 0 | S = 0 | Stoichiometry = C21H17CrNO4S | MND = 6
Cr        0.81068864338427    4.54146051990957    4.77389162073555
S        -0.37331616685750    6.38586961141959    3.43814770598847
O        -1.39785981304253    3.97534038490135    6.71751879087414
O         2.00388265203345    2.13299175924130    6.07251363804727
O        -0.42307324266757    2.34059926404220    3.15212302637324
O         3.15984697939643    4.26920852802505    2.92847864161642
N         1.74711408080790    6.47543555352512    6.98774918457002
C         1.47635279711529    6.25154823426054    5.70978758966974
C         1.65111295646960    7.38769044104762    4.83727063658955
H         2.40140042120473    8.13327836145672    5.08390970269596
C         0.95458418667840    7.54813911390946    3.68655944250755
C         1.12476190083429    8.62524342900044    2.72470292711262
C         0.05381268600273    9.06576376875091    1.94409742828288
H        -0.91692212889592    8.60946984714744    2.07087978872874
C         0.22228906489446   10.08510055708434    1.02857063275469
H        -0.61798265208491   10.41507466971896    0.43603831647812
C         1.46176970374828   10.68274611141176    0.86818434916941
H         1.59333468927377   11.47721511528652    0.14931929767361
C         2.53416940356347   10.25170769185333    1.63284258231719
H         3.50524905080324   10.70753035582762    1.50696565378241
C         2.37157650118294    9.23424677367604    2.55142147035496
H         3.22034577407202    8.88905318004827    3.12334675917801
C        -0.13190761569585    5.81419897634604    1.76532823143091
C        -1.20513620661344    5.15837244032210    1.17700363812748
H        -2.12633986806065    5.04320712832815    1.72911216483585
C        -1.07601280968427    4.64365976292330   -0.09913037756974
H        -1.90624403543345    4.12358671267133   -0.55217584742469
C         0.11441015216658    4.79499178870880   -0.79143502252637
H         0.21547725933988    4.39278651226099   -1.78790744066883
C         1.17696654480991    5.45780630038947   -0.20103992018094
H         2.10881689341810    5.57326808686310   -0.73365411483234
C         1.06251459243803    5.96767280664467    1.08002807984430
H         1.90196149011661    6.46940295451618    1.53636276090615
C         1.94104938513368    7.79125452304663    7.57325179793255
H         2.99710710076444    8.07769636937911    7.56113503813658
H         1.60160937718128    7.77700713309127    8.60835846766880
H         1.36286480799812    8.54156636850255    7.03523344802484
C         1.81657238064567    5.40535555417188    7.95349636591741
H         1.99523704391825    4.46030967033564    7.44285390900048
H         0.88228637746487    5.32659300007308    8.51599383688139
H         2.63122192020468    5.59991930128388    8.65297356822280
C        -0.59026434446220    4.32074212306121    5.97122995888715
C         1.59515861965408    3.12486848860964    5.62884336601371
C         0.02013832889192    3.22197969384873    3.75171887405762
C         2.25327511778763    4.49754103306121    3.60240003182636

