61
CSD_code = HALTET | q = -1 | S = 0 | Stoichiometry = C16H33MoO5Si6(1-) | MND = 6
Mo        3.33391060413906    2.52206558823896    1.66245821087331
Si        2.42162505048622    3.19445694055710   -0.64015469987974
Si        2.77825215263270    1.79527792055492   -2.56445152586781
Si        1.78951218527510    2.28696299647167   -4.66304508762567
Si        2.12065732498715    4.53330792374979   -5.34149696216463
Si        1.86793441548084    6.10230803041290   -3.58338261619996
Si        2.83318963382628    5.38751971343006   -1.53837160755483
O         4.30181893748836    1.69362452016570    4.47724291125287
O         5.43481296000492    4.81111664166674    1.78585375481759
O         5.52068506785873    0.63196711429544    0.51527362288978
O         1.29208484105193    0.17456123183558    1.72355952822449
O         1.22368004819423    4.38718855114037    2.98547579696460
C         3.94516869164265    2.00220439650071    3.42680194382672
C         4.64112152375962    3.98385496433133    1.68284807401743
C         4.69301792604369    1.34265380226230    0.88257460450757
C         2.03604606946696    1.04963042421914    1.66749463665822
C         1.99046438502040    3.70641209040478    2.46500624734130
C         0.47574518720595    3.23332104874855   -0.67482012198911
C         2.30861258860035   -0.01222925578686   -2.09158035708041
C         4.65530494753709    1.70009595552660   -2.94779759425005
C         2.34693208391569    1.10388888260987   -6.09044069140059
C        -0.10925249525678    2.01278801370237   -4.57783993043040
C         3.91626527528463    4.68356737729220   -6.00432927224136
C         1.02941000486199    4.98986135877989   -6.87072904862937
C         2.49647679584424    7.83209487797481   -4.18374357533293
C        -0.02012931772492    6.37005367176862   -3.35598549451016
C         2.38420184270442    6.68428578913553   -0.18626554973031
C         4.71865991073924    5.62217344043034   -1.80142588283182
H         0.06840640013653    2.25781298713324   -0.42131340685576
H         0.06888526944213    3.51636085529093   -1.64193644124899
H         0.09333236758382    3.93783876785297    0.05939414319746
H         1.23742709112793   -0.09323695288041   -1.92954342137589
H         2.79803374774644   -0.30696076507435   -1.16497057571762
H         2.58311195243459   -0.73913253858396   -2.85254906557466
H         5.01780481525872    2.65365082701118   -3.31819225491271
H         4.89168732353854    0.94748897509937   -3.69424590483711
H         5.22427630516751    1.46355650599307   -2.05485931745048
H         2.14313252189893    0.06325356497727   -5.85101116902475
H         3.41688775303036    1.19615005910559   -6.25122506960397
H         1.85278817153965    1.32630646052587   -7.03315334059225
H        -0.54731782877654    2.68443387819682   -3.84749846647435
H        -0.35620257898011    1.00053826667598   -4.27350268274936
H        -0.60015489720669    2.19917747354996   -5.52840800792998
H         4.10918028870779    4.00332427616401   -6.82822409897022
H         4.61860530646207    4.44242634058025   -5.21331703280935
H         4.14597142332367    5.68761098400242   -6.34763267057967
H        -0.02231079406203    4.92976823371135   -6.60772412674002
H         1.19567613079825    4.31587298477533   -7.70732728408585
H         1.22063181616718    6.00069147791502   -7.22206729242977
H         3.56504798450923    7.79204708658292   -4.37275657194041
H         2.32788231898107    8.60202549096458   -3.43505135465547
H         2.01247251737283    8.15596668708721   -5.10199248223562
H        -0.49494897278918    5.43473950591961   -3.08000651200905
H        -0.50255931242628    6.72648223335148   -4.26122263720266
H        -0.23301633004689    7.08457283079893   -2.56710753039743
H         1.31105941551876    6.69520240171465   -0.01745468592267
H         2.68778596177134    7.69600354597315   -0.44519845767929
H         2.85691160796650    6.43239426445282    0.76130898152045
H         5.06698455302303    5.01287838543296   -2.62928579750296
H         5.27538242074935    5.31852110107543   -0.92089580248780
H         4.98593660893546    6.65231979419141   -2.01765897638193

