77
CSD_code = HALVUL | q = 0 | S = 0 | Stoichiometry = C44H28N4Zn | MND = 4
Zn        0.00000905022155   -0.00000248682964    0.00000044326467
N         0.62342965950858   -0.67265454708808    1.80795253139019
N         0.23823575883613    1.91234169496404    0.62741360053901
C         0.72626998788513   -1.97154226119253    2.20059380753855
C         1.21585559889160   -2.03517080300040    3.54940899458360
C         1.39051071637682   -0.75841362216779    3.96313916275876
C         1.02426372201581    0.08838359182488    2.86247208338328
C         1.06916612851451    1.48115198836556    2.89696446926771
C         0.70951865775221    2.31447670684163    1.83886863572194
C         0.82946338289672    3.74552457431535    1.86468306144764
C         0.41396198956587    4.19469696480244    0.65745733535515
C         0.03875512544438    3.03923984911671   -0.10881967612978
C         0.42170630724823   -3.08857979504123    1.42384286006227
C         1.54358600343450    2.12504960395601    4.14233921586418
C         2.85674533802876    1.95603669561561    4.57009097198862
C         3.29945987747912    2.56613782209030    5.72991035203507
C         2.43548453105543    3.34685652994278    6.47944690950995
C         1.12591033503163    3.51700712678758    6.06247044872724
C         0.68256568671875    2.91314681835512    4.89969939790894
C         0.59280726132058   -4.42251230852859    2.04128055125630
C         1.53417713080640   -5.31594211609946    1.53929259302517
C         1.69960973902395   -6.56002591406530    2.12082758059347
C         0.92346845622866   -6.92984585150819    3.20646420443411
C        -0.01967586453891   -6.04882044931002    3.70864363536847
C        -0.18330024720935   -4.80212188113842    3.13216930268611
H         1.40448849079547   -2.93810715529762    4.09644713536442
H         1.72919499131973   -0.41477060241840    4.92093161365407
H         1.19990332617686    4.31893902898275    2.69185585323191
H         0.37861946980564    5.20714437511322    0.30537095959012
H         3.53078169074249    1.35149318611329    3.98048977128231
H         4.32273326982644    2.43270654564514    6.04973971445243
H         2.78176688753847    3.82196002932093    7.38550544023851
H         0.44769100372791    4.12320658100368    6.64531005869335
H        -0.33969343864176    3.04194272278919    4.57447852228671
H         2.14289508307418   -5.02372362017496    0.69583550210157
H         2.43720117396001   -7.24356241545839    1.72591853300336
H         1.05318738071220   -7.90168019582639    3.65954588796270
H        -0.63020066542344   -6.33413952763409    4.55307298175324
H        -0.92310235282120   -4.11621689804146    3.51896515494950
N        -0.62341711193738    0.67265149411794   -1.80794944826914
N        -0.23822635579658   -1.91234338206240   -0.62741459820556
C        -0.42158880801055    3.08857602054370   -1.42387837599576
C        -0.03868535324876   -3.03924138014930    0.10880148354598
C        -0.72619611468724    1.97153785474299   -2.20061268752345
C        -1.02432018726221   -0.08838457964750   -2.86244525198543
C        -0.70958099755495   -2.31447910556965   -1.83884184427895
C        -0.59260669532359    4.42250359944345   -2.04135300527551
C        -0.41391203374729   -4.19470104369889   -0.65746170381819
C        -1.21579726158815    2.03516737768550   -3.54942204324329
C        -1.39054253789903    0.75841194331668   -3.96312014487623
C        -1.06927772994142   -1.48115196984026   -2.89691955343792
C        -0.82950087396043   -3.74552948564994   -1.86465737920911
C        -1.53394549207467    5.31599746329529   -1.53942108451017
C         0.18355454726109    4.80203913452658   -3.13222959364986
H        -0.37852454542538   -5.20715013822325   -0.30538394704357
H        -1.40438241012880    2.93810446827088   -4.09647546025704
H        -1.72927200667261    0.41476851908240   -4.92089651332574
C        -1.54378750426741   -2.12503938559061   -4.14226384038358
H        -1.19998401693152   -4.31894707552872   -2.69180935619950
C        -1.69928991376868    6.56007472351147   -2.12099547933832
H        -2.14270921340280    5.02383377271991   -0.69597819767503
C         0.02001817205205    6.04873118310355   -3.70874270404409
H         0.92332738115746    4.11608079622178   -3.51898617683283
C        -2.85696307907036   -1.95596848717866   -4.56994169142144
C        -0.68284849695486   -2.91317984789677   -4.89967008089515
C        -0.92309209412063    6.92982274544655   -3.20661578947231
H        -2.43685730915861    7.24366163113873   -1.72612924434374
H         0.63058491447303    6.33399343242350   -4.55316069754123
C        -3.29977397402951   -2.56606120225237   -5.72972746693229
H        -3.53093494637351   -1.35138903285621   -3.98030718814854
C        -1.12628947817782   -3.51703222431224   -6.06240778222810
H         0.33942441640974   -3.04201286023048   -4.57451314216273
H        -1.05274155394815    7.90165250817709   -3.65972678019384
C        -2.43588063464521   -3.34682743236779   -6.47930725127168
H        -4.32305951863968   -2.43258971179251   -6.04949494241237
H        -0.44813314281965   -4.12326448182800   -6.64528325790781
H        -2.78223868311763   -3.82192582621834   -7.38533738038389

