91
CSD_code = HALXIB | q = 0 | S = 0 | Stoichiometry = C50H35CdN5 | MND = 5
C         6.25426938196983    4.57988914532360   11.45658113287758
C         7.07817899168710    5.75790450515779   11.57534485869053
C         7.28871287941523    5.95941834044975   12.89872375357153
C         6.58059423081397    4.91676960907823   13.60014527713148
C         6.54190946025090    4.76348283208605   14.99527708575980
C         5.88378708390984    3.74650575794682   15.70531415712218
C         5.78380675275239    3.67299079898815   17.14243533136708
C         5.03729423072552    2.57935992312705   17.43026383447607
C         4.67765062645246    1.97434487866378   16.17106198026389
C         3.87085385196161    0.83362276826224   16.02527083242999
C         3.43684958506815    0.26808960941385   14.81503296637234
C         2.64452818996431   -0.93132642525294   14.69577426646968
C         2.44732752227471   -1.14296947327103   13.37197006389574
C         3.12838436278132   -0.08197984697148   12.67114728301912
C         3.17283398808505    0.06731231874872   11.27588692692792
C         3.82260458121732    1.09001447638180   10.56631081125513
C         3.94419030667223    1.15107924274755    9.13024823052078
C         4.67731421653593    2.25384046666909    8.84316185671514
C         5.01102225309462    2.87445617095075   10.10185301248299
C         5.80994893549077    4.02065605457415   10.24721242596166
C         6.24472587658269    4.68742360670098    8.99971817961899
C         7.59449709504472    4.76473667673132    8.66845862440806
C         7.99637660137406    5.38541978371229    7.49990065863990
C         7.05697099310827    5.94113389753834    6.64734023461370
C         5.71173026932959    5.86878524731159    6.96786404165583
C         5.30778716650879    5.24432302046538    8.13382078719488
C         7.25648820975238    5.77937635104445   15.79962685113459
C         6.86186923341601    7.11390616234379   15.76922880111618
C         7.52978591710640    8.06119071548481   16.52360146494140
C         8.60366209161128    7.69004191009293   17.31552571088644
C         9.00409907323644    6.36481417648835   17.35160308473566
C         8.33419411754230    5.41529424960465   16.60174987216893
C         3.42752691117857    0.16870228810656   17.27061289866953
C         4.35723616697145   -0.38701573439413   18.14496961385388
C         3.94315142994895   -1.00915559230423   19.30845148480723
C         2.59520105499416   -1.08069841984625   19.61836200398386
C         1.66272845310707   -0.52841011984958   18.75626643697979
C         2.07483102195888    0.09004905579233   17.58994247358586
C         2.48556863490385   -0.96566611237902   10.46927032390584
C         1.40710180422041   -0.62372192643754    9.65846510924408
C         0.76141289377176   -1.58691230118376    8.90483940342419
C         1.18752554769065   -2.90394192677925    8.94585342094058
C         2.26282575164672   -3.25282538747727    9.74594380566753
C         2.90649849543183   -2.29193123244737   10.50420493422638
C         2.39756162218172    4.87407173435189   12.41903703090955
C         1.27946828891904    5.68825596293171   12.46685291559091
C         0.39071609239698    5.56827305159407   13.53110528246456
C         0.69170642263055    4.61834623074342   14.50280240532294
C         1.83420848589660    3.84857937025409   14.37120820143845
C        -0.81998594137563    6.43571308502179   13.63848814464739
N         5.97609517872787    4.10708992404408   12.69656590780937
N         5.20413987942688    2.70823150090055   15.15980118204322
N         3.70829017006827    0.74496445845221   13.57536020147056
N         4.48058962408600    2.14208279512761   11.11195256953025
N         2.67542543294644    3.96737252611827   13.34969177932097
Cd        4.60184793769014    2.59305661215239   13.15518954301805
H         7.44097824405747    6.35159653114610   10.75815221301688
H         7.87539507794850    6.73257269098930   13.35682394531656
H         6.21028659005150    4.37458202152968   17.83373857631334
H         4.74268634957027    2.22486404699145   18.39965073022785
H         2.29888857819505   -1.53512069968833   15.51303937601562
H         1.88972416635936   -1.93670680203529   12.91280237304281
H         3.54318745460160    0.43364399182550    8.44003302046082
H         4.98529365575686    2.60177975006874    7.87563925356322
H         8.32550432928965    4.32222213428350    9.32955543624034
H         9.04686626432761    5.43466719613544    7.25187987288537
H         7.37194605634417    6.42725333770576    5.73565779495112
H         4.97460385253200    6.30051197188780    6.30598646519813
H         4.25773211131075    5.18964124061955    8.38498719700242
H         6.01912579707377    7.40051021520830   15.15604152295497
H         7.21153253299774    9.09352730333685   16.49440389764914
H         9.12616803417197    8.43104773672869   17.90259929646161
H         9.84241085191368    6.07027356297691   17.96639358892122
H         8.64911926318305    4.38201641165597   16.62407196950484
H         5.40784535191031   -0.33655050748679   17.89821672363126
H         4.67458042871050   -1.44102016674929   19.97624353305903
H         2.27245072730118   -1.56541047421188   20.52806535723060
H         0.60983681006059   -0.57994373454564   18.99423892463663
H         1.34671884520574    0.52468871570584   16.91923586321412
H         1.07327981150743    0.40390786686087    9.63129450025423
H        -0.07755081656028   -1.30950211485156    8.28275381031911
H         0.68415136459988   -3.65555969468901    8.35556638471871
H         2.60182249713840   -4.27828376127622    9.77796240836883
H         3.75078132609409   -2.56115595283849   11.12233320531933
H         3.10649505627591    4.94482702179419   11.60211835320773
H         1.09839004845675    6.40879979389191   11.68357713633841
H         0.03942465300801    4.48118341282512   15.35195556498792
H         2.09302645798375    3.10217875953862   15.11319635903340
H        -0.57716652449067    7.33109324392181   14.21132564286530
H        -1.62492115126335    5.91680318147924   14.15305245766792
H        -1.16343353078224    6.74804497617907   12.65551577412991

