105
CSD_code = HALXAT | q = 0 | S = 0 | Stoichiometry = C59H40N4OZn | MND = 5
Zn        2.31138293048408    1.26170247635664    4.62220760177131
N         3.89854552819184    0.00811790593415    4.89480289244383
N         3.52389084466233    2.53737967758619    3.59974954568607
N         0.83618434315343    2.64407540746196    4.58959602796932
N         1.26755204061210    0.19192601628842    6.01497326140431
C         5.57838460130599    1.20062121180239    3.56561328957457
C         1.88513289524047    4.29141379501781    3.10966779140002
C        -0.80619503185220    1.49941012173299    6.00357802476045
C         2.86409897335916   -1.62778181084253    6.39917641439739
C         3.88946954657713   -1.16693476411844    5.57381088959931
C         5.14437081036348   -1.84573894614470    5.39207591012461
C         5.90484415917590   -1.05335839938093    4.60198599553433
C         5.11977963265332    0.11595809571695    4.31226774084331
C         4.82692040015278    2.33882719488272    3.27223367253207
C         5.32280499945852    3.46892702388200    2.53417286229473
C         4.28616000839360    4.32846380327540    2.39810998997355
C         3.15908202135802    3.72549121387251    3.05717296348989
C         0.80700675696943    3.75678992307841    3.81449766237588
C        -0.51412057021358    4.32649893783953    3.82660389908370
C        -1.26481236231495    3.54923133827683    4.64030036290936
C        -0.40268109676697    2.50315035789887    5.12286413717641
C        -0.00140408620030    0.44118551365479    6.42660240341773
C        -0.42149054305050   -0.57307313767770    7.35543094813617
C         0.60597840034134   -1.44655598544541    7.46924391769472
C         1.66029895854278   -0.95829804938647    6.62208932959746
C         6.95855923839208    1.14199648762427    3.03533275176300
C         8.05186309139220    1.15558666583251    3.89522204532026
C         9.33939051792664    1.11176843357570    3.39189814081250
C         9.55105076866641    1.04882442602523    2.02476765971599
C         8.46795918737162    1.02965558388796    1.16210641090361
C         7.17977580150909    1.07799098748488    1.66292393013185
C         1.66804914616583    5.54510433717077    2.35705767946415
C         1.79684253510257    5.56078923750129    0.97108692323324
C         1.59832497325900    6.73131943925640    0.26200267775767
C         1.27407550027853    7.90199221730156    0.92742437965670
C         1.14567659136976    7.89546230578399    2.30633137017272
C         1.33861780250373    6.72484950133976    3.01721077329465
C        -2.19264027164180    1.55127381788008    6.51569346994675
C        -2.61338392055849    2.60944145474114    7.31542007520126
C        -3.90956242351731    2.65317152018612    7.79585858143203
C        -4.80409601066282    1.64444052718839    7.47930494617278
C        -4.39501133901609    0.58951145400894    6.68072294709323
C        -3.09780064256765    0.54102536010932    6.20383847120901
C         3.06434894480243   -2.92484880814154    7.08168464669356
C         3.16089391288529   -2.99290568100583    8.46790466391145
C         3.33997769195877   -4.21045064376050    9.09940235810262
C         3.42069278020005   -5.37562469072173    8.35536569038327
C         3.32735091437785   -5.31649425697842    6.97479665891187
C         3.15388357858159   -4.09970691040161    6.34078732357446
O         1.63102565442042    0.20055588872243    2.87396774755413
C         1.62935806988787   -0.62684748201058    1.96425510520177
C         1.19273310413594   -2.01643672553763    2.25549343631111
C         0.85607733988769   -2.24187885520281    3.59746146434760
C         0.53369982228346   -3.49135277981749    4.07697218856613
C         0.54704089196735   -4.57041500060187    3.20826651520367
C         0.83802666617009   -4.36224432283604    1.87297472290187
C         1.14695876849454   -3.10339780980075    1.36782856206340
C         1.35481278823791   -2.98343518655734   -0.11200690323198
C         0.66895950485824   -1.74013318677260   -0.68844675530514
C         1.62080205824286   -0.59005107955428   -0.59891045181890
C         2.07658621635009    0.02848958632146   -1.75492418681885
C         3.01927372373200    1.04056756823896   -1.70886914857702
C         3.53005712504474    1.44556037250747   -0.48671209633875
C         3.07096915647056    0.85238212996203    0.67080058946767
C         2.11704908746663   -0.16781481994206    0.63822489565300
H         5.40579062208829   -2.79180597412554    5.82513619075776
H         6.90151164689654   -1.23340026102996    4.24788784389607
H         6.33016994211734    3.58475471192685    2.18334486078425
H         4.28169477464173    5.28705358167109    1.91631638628748
H        -0.82008385958940    5.19385641031650    3.27417200811225
H        -2.30425001629316    3.65724540764307    4.88334553336236
H        -1.37129467376499   -0.60310155939356    7.85314864441882
H         0.65002685408676   -2.33892623405632    8.06321780969380
H         7.88437979556017    1.21115522521724    4.96110571722855
H        10.18141867648648    1.12753969943996    4.06871469808713
H        10.55697476700789    1.01336566125174    1.63291799773096
H         8.62791222294522    0.97685688641276    0.09471597115773
H         6.33280214715325    1.05632989114273    0.99172697102421
H         2.04280105616121    4.64352570434486    0.45469161931092
H         1.69600612056178    6.73102018886798   -0.81416394792466
H         1.12281407513913    8.81670453152327    0.37323940140192
H         0.89693515525195    8.80717456549200    2.82998160708705
H         1.24666961809165    6.71948581281440    4.09367872227658
H        -1.91278969878045    3.39305595951171    7.56533142858563
H        -4.22351001383798    3.47703040895788    8.42042213830078
H        -5.81633609606714    1.67966680488447    7.85458846774194
H        -5.08973340686588   -0.19900763095856    6.42903940283918
H        -2.77834296170822   -0.27791457783892    5.57502883326632
H         3.10430824074131   -2.08226107717568    9.04655509985923
H         3.41949074141845   -4.25045345062637   10.17600125607251
H         3.55938161318751   -6.32597324138995    8.84942057281774
H         3.39007757658600   -6.22258903089917    6.38929077114362
H         3.07540735024371   -4.05142729916360    5.26386151671221
H         0.86316652801310   -1.39538809484396    4.26279226993962
H         0.28399962801668   -3.62187211051070    5.11885266588803
H         0.31450898907326   -5.56363816578146    3.56248446050653
H         0.81583900163600   -5.20185272633631    1.19232948797225
H         0.95979697562925   -3.88031216538600   -0.59300585684696
H         2.42548400866983   -2.93811399600603   -0.33681057219042
H        -0.24856602382260   -1.53545543772540   -0.13179730384587
H         0.40031113068203   -1.91322593394199   -1.73150791454427
H         1.68378631711326   -0.29082114630098   -2.70986573523220
H         3.35466996780181    1.50648197820012   -2.62351561931281
H         4.27037567407269    2.23003030432198   -0.43274342873201
H         3.44994302662155    1.16185639499319    1.62992223012075

