101
CSD_code = HALYOK | q = 0 | S = 0 | Stoichiometry = C52H38N4NiO6 | MND = 6
Ni       -2.46836202646961    6.56856296098059    3.64687659563974
O        -1.06677997191882    7.86401187428704    3.77285107909837
O        -1.22082328327231    9.14892844032782    1.94147101668965
O         0.82099597693402   10.54482108361981    2.46001542243163
C        -0.71618468539251    8.78366859037371    2.99659710558627
C         0.61154015095370    9.52556170152767    3.40697760783662
C         1.68414558558147    8.46055251009166    3.32765386789721
C         1.85744482122286    7.56372154057882    4.37620783098335
H         1.21688617416228    7.63174636316746    5.24234375487850
C         2.84772194012780    6.60228333707289    4.31325145636511
H         2.99050485495151    5.92436309619853    5.14326208739811
C         3.66704096021524    6.51426239108439    3.19915316511080
H         4.45253857855951    5.77261034520056    3.15990878937067
C         3.47913355758209    7.38607376154991    2.14113455066261
H         4.11235270985174    7.32243162280958    1.26746278148688
C         2.49198648810793    8.35285741001300    2.20386889309674
H         2.35430081542736    9.05186041314113    1.39289449388786
C         0.54940187080774   10.13299594019894    4.79659637334026
C         1.72383221231307   10.66794770207761    5.31685019587979
H         2.63035283250439   10.61222411360082    4.73224142596675
C         1.73097473085327   11.27064468042700    6.56047616017119
H         2.64960465723893   11.68380195324273    6.95260521034397
C         0.56289597138506   11.34569325126497    7.30181923661803
H         0.56756292443634   11.81603103547950    8.27518335667756
C        -0.60835569661064   10.82272118352165    6.78479073781867
H        -1.52960495246945   10.88239909039150    7.34597824457833
C        -0.62093326615050   10.22433816864195    5.53481791837162
H        -1.54926365130082    9.82385961408276    5.15976589122812
N        -3.89864849654552    5.28010183833123    3.93489122858568
N        -2.63485693957398    6.52478621726812    5.98390990851559
C        -4.46833683435498    4.59549904289412    2.96508377307841
H        -3.92359727637260    4.53493597978187    2.03205860858729
C        -5.71018601899133    3.97209559995659    3.10505771987509
H        -6.11996906109639    3.40947287601273    2.28103105439733
C        -6.40233351462579    4.11243953416727    4.28311859708442
H        -7.37871513010108    3.67117309243600    4.41645098962386
C        -5.82985861485309    4.85700040341744    5.32587398413686
C        -6.50467939119374    5.11760382344358    6.55238734470502
H        -7.49211313730465    4.70147002370835    6.68427334215600
C        -5.94458066327390    5.89863329122582    7.50711039794220
H        -6.48133273950192    6.13231722914978    8.41503041392108
C        -4.63321310420272    6.42837811010382    7.34595650435315
C        -4.00442565061116    7.24660071040899    8.30129402762255
H        -4.53776659712912    7.51994490308878    9.20080382405118
C        -2.72725725625274    7.68864333292545    8.06471032637888
H        -2.22134075963715    8.33677071950513    8.76267158775118
C        -2.07017425640914    7.27818018967468    6.89786000168245
H        -1.05195519533608    7.58512208536906    6.70225522426198
C        -3.90825086806694    6.13390928946351    6.17309403572224
C        -4.54342281723870    5.39836595621693    5.11385773598756
H         0.06146879030884   10.47642194070789    1.84574777552147
O        -3.87058419536503    7.86510242249953    3.51690454030408
O        -3.71976912716897    9.14947886678688    5.34887667592750
O        -5.76422759082747   10.54138070147217    4.83106506608890
C        -4.22303519131184    8.78408353902079    4.29310978122326
C        -5.55116874700075    9.52480289651422    3.88191600718419
C        -6.62226882337183    8.45793940735559    3.95661318405471
C        -6.79271347781538    7.56372834238601    2.90534950619572
H        -6.15140932101586    7.63546012911496    2.04005408452009
C        -7.78113634881186    6.60010252172065    2.96460035252030
H        -7.92149393349812    5.92396210175916    2.13270174081142
C        -8.60168899674184    6.50752400920388    4.07745001020915
H        -9.38582662904744    5.76425026172756    4.11372852804125
C        -8.41691226756913    7.37704373213129    5.13794169980605
H        -9.05117538253756    7.30997558249323    6.01062522187999
C        -7.43140862487869    8.34576865995597    5.07906481346586
H        -7.29593131109095    9.04276154064674    5.89216630801355
C        -5.48783751861838   10.13595749944647    2.49393137612580
C        -6.66101138046087   10.67707961986891    1.97698120042550
H        -7.56673890999737   10.62325353590308    2.56297118380935
C        -6.66743083881657   11.28440435297609    0.73562522801615
H        -7.58495083731303   11.70264863287266    0.34620582725823
C        -5.49991514374950   11.35778269181052   -0.00683828602560
H        -5.50409398626978   11.83141070300609   -0.97865430348487
C        -4.33002953333110   10.82815084584790    0.50669076159274
H        -3.40949679298431   10.88560162933204   -0.05589086230391
C        -4.31812925441544   10.22507318698893    1.75442404485213
H        -3.39094188859710    9.81934713681929    2.12661098662851
N        -1.03705753435722    5.27702586119825    3.35936388830546
N        -2.30066633446495    6.52023095610597    1.30937840412109
C        -0.46730441786246    4.59350767735624    4.32983577717596
H        -1.01230925002245    4.53322724382210    5.26274014283692
C         0.77513903713614    3.97099640653518    4.19087187812077
H         1.18509810282072    3.40943124685628    5.01554269695629
C         1.46750424183626    4.11083045528925    3.01289037400683
H         2.44425999846328    3.67016876922052    2.88021836027972
C         0.89488141732762    4.85419846711702    1.96934538707049
C         1.57000004953440    5.11438948252070    0.74292354392361
H         2.55759353732097    4.69846166400003    0.61147970011231
C         1.00970011424260    5.89432017138373   -0.21257802257036
H         1.54639630013033    6.12719021152442   -1.12076253699612
C        -0.30212106311102    6.42319365496440   -0.05233818588855
C        -0.93121481417073    7.23999151354679   -1.00870781392132
H        -0.39766150481318    7.51307754709352   -1.90815567401708
C        -2.20854494709410    7.68191277669292   -0.77267447051622
H        -2.71468712002949    8.32898050394142   -1.47145139693875
C        -2.86544711485401    7.27273016182105    0.39474189830975
H        -3.88416715280254    7.57848000966060    0.58943935074314
C        -1.02717878264321    6.12948620862644    1.12066467307132
C        -0.39190466911751    5.39499977256916    2.18062089393050
H        -5.00504678810262   10.47355432434646    5.44580279940577

