77
CSD_code = HAMBUS | q = 0 | S = 0 | Stoichiometry = C44H28N4Zn | MND = 4
C         2.83190642945359   -2.08628961659499    0.33741550068851
C         1.71413893510537   -2.43085697344285    1.17105102686492
C         1.68987864410047   -1.53321840087361    2.18355243271045
C         2.79252596143471   -0.63773525419455    1.97091303029165
C         3.08762833645397    0.44789873646260    2.79389177328408
C         4.11358498439625    1.36313249766692    2.56434186846506
C         4.41553112534630    2.47059197419886    3.42759886274239
C         5.46632288446183    3.12129608756378    2.87623266427784
C         5.81931969578741    2.40391994437437    1.68305033148600
C         3.17534993780079   -2.76612440469259   -0.83012068108863
C         2.24359747903274    0.64702457237290    3.99316834091587
C         1.42708857295057    1.76810459221245    4.10452397909633
C         0.63676135395176    1.95025948287618    5.22489622475149
C         0.65646487991059    1.01896008249559    6.24971418224069
C         1.46787818372127   -0.09861898101749    6.14728192685676
C         2.25431945497903   -0.28620484742849    5.02505928602309
C         2.36872719173872   -3.95252032555189   -1.19319562032767
C         2.37957050272817   -5.08564934116261   -0.38581074771250
C         1.62633139449524   -6.19488781682251   -0.72522753835145
C         0.84843287568799   -6.18396571981530   -1.87093061239020
C         0.82934605123892   -5.05867553749400   -2.67794475931044
C         1.58645269580740   -3.95042506158099   -2.34385692469885
N         3.46172144246484   -0.98968072529783    0.83963672686128
N         4.98139143561316    1.34478001175036    1.51637598392308
Zn        5.01773782705300    0.00023047860187   -0.00020850759409
H         1.03428206902096   -3.24020069919930    0.98927883545173
H         0.98652750225885   -1.46619265660953    2.99046779643042
H         3.89379385359204    2.70787421570717    4.33406797212687
H         5.95646721337342    4.00572048436758    3.23363685217671
H         1.40902007654196    2.49051706756156    3.30127040980219
H         0.00298909982032    2.82205912798713    5.29868060225017
H         0.04099138975653    1.16352678423072    7.12533104309520
H         1.48794247588534   -0.82709120346454    6.94482792013709
H         2.89131410219553   -1.15522579812685    4.94479688238288
H         2.99058460681831   -5.09349594292945    0.50525521379270
H         1.64598533979528   -7.07098503574025   -0.09340347902476
H         0.25848091868016   -7.04955322332581   -2.13383050100794
H         0.22175292454923   -5.04417103393823   -3.57112453776601
H         1.56810823498416   -3.06920843991302   -2.96877564534544
C         6.86072989167104    2.76604917531355    0.83018417215826
C         4.21674123357256   -2.40397924261994   -1.68300090454045
N         6.57424295667380    0.98971566449899   -0.83967429052884
N         5.05457379669109   -1.34474990215029   -1.51640445589457
C         7.20415448691922    2.08623352326097   -0.33736981539980
C         7.66736384134726    3.95243317045999    1.19327776322638
C         4.56969836379960   -3.12131850265713   -2.87621611261025
C         7.24348805533273    0.63772039568935   -1.97090650253185
C         5.92242950936460   -1.36314886474167   -2.56432996222240
C         8.32188396423027    2.43083575971324   -1.17104173691546
C         7.65655738235991    5.08558372746614    0.38591898946825
C         8.44962628610365    3.95029019046606    2.34394496893169
C         5.62045717599323   -2.47058457181995   -3.42760874676593
H         4.07956228702975   -4.00574923572059   -3.23361585362937
C         8.34611146457577    1.53322692247963   -2.18357029019768
C         6.94836766856630   -0.44789818610748   -2.79389828508774
H         9.00175025085509    3.24016998483073   -0.98926455285501
C         8.40983092013478    6.19479138339006    0.72536525580799
H         7.04555022521176    5.09347031053135   -0.50515144080312
C         9.20676504737177    5.05850858453423    2.67806218448420
H         8.46793305796609    3.06906053801292    2.96884674741080
H         6.14217012038960   -2.70784489059714   -4.33409737371310
H         9.04944069672925    1.46622044112977   -2.99050601994186
C         7.79233698987474   -0.64696631776837   -3.99322911054075
C         9.18772089078480    6.18381764548799    1.87107342898750
H         8.39020850373972    7.07090514184012    0.09356276808399
H         9.81434594560542    5.04396521886837    3.57124962013422
C         8.60885669974108   -1.76802883305980   -4.10465532065471
C         7.78155615660238    0.28629712288630   -5.02509230979669
H         9.77769289642086    7.04938239350956    2.13400257883904
C         9.39914292150688   -1.95013288569418   -5.22506373704334
H         8.62696725956212   -2.49046737429529   -3.30142613940577
C         8.56795841332519    0.09876220952923   -6.14735216919110
H         7.14455330280989    1.15530711694591   -4.94477528351543
C         9.37938620759804   -1.01880026616218   -6.24985065884196
H        10.03292288629418   -2.82192209474392   -5.29890161756854
H         8.54785154235675    0.82725933212432   -6.94487490031240
H         9.99482261790139   -1.16333388604435   -7.12549900153197

