77
CSD_code = HAMBOM | q = 0 | S = 0 | Stoichiometry = C44H28N4Zn | MND = 4
Zn        7.79900453478759    5.48399687648288    7.88523394002318
N         8.70001407815018    3.81155394069288    7.18542490737915
N         6.00050457729790    4.72654261149295    7.34350087108492
C         6.72703779277807    2.58028686473013    6.40506612672650
C        11.03191349589119    4.40848807907778    7.65455392099187
C        10.03809625163870    3.56613630331560    7.16601819622590
C        10.29408833037640    2.29588977563858    6.54761398972693
C         9.09127479394899    1.78371935499054    6.19688821236795
C         8.09769716778212    2.73793117354691    6.60663290215646
C         4.34692643749147    3.33714946479327    6.58318926837544
C         3.74458028586227    4.45158094925064    7.06008566842780
C         5.76130347022550    3.52125326836398    6.75975701916743
C         4.78885774208725    5.31494662907771    7.53513664519700
C         6.26717465134486    1.32422507804655    5.77189828651664
C         6.42911589398642    0.10679241847733    6.42583723283010
C         6.00027137675794   -1.06804058814259    5.83514612637005
C         5.41117235433366   -1.04217193618289    4.58207290558120
C         5.24874808321018    0.16524289290043    3.92359262026516
C         5.67047115531377    1.34235527717605    4.51524325215009
C        12.43922107705811    3.95022203349019    7.53281288196294
C        13.17904898611085    4.25653614306795    6.39685630784400
C        14.48996790062807    3.82942083260928    6.28149912863519
C        15.07341701378094    3.09327604137655    7.29896755775938
C        14.34111376521618    2.78537906175509    8.43313842301933
C        13.02978171009916    3.21125255038336    8.55068732624038
H        11.26785030990525    1.86924099417685    6.40295997569916
H         8.88687234661634    0.85666415669552    5.69772253076076
H         3.88683907265981    2.46489994356035    6.16142161138837
H         2.69658877793762    4.67846991831317    7.09812347017917
H         6.88552655653934    0.09002823300879    7.40502963685533
H         6.12676524587810   -2.00721555908961    6.35390078524594
H         5.07987148176429   -1.96041849754716    4.11994619793901
H         4.79207612415108    0.18977469338674    2.94481630123809
H         5.54963115200152    2.28493112151798    4.00108816875809
H        12.71938416404168    4.83111454651950    5.60579332172600
H        15.05789067515165    4.07165807410965    5.39501237393785
H        16.09682365885282    2.76014958833456    7.20802547488063
H        14.79296986619157    2.21142453934906    9.22905375779970
H        12.45480620568366    2.97282877636725    9.43373909148332
N         6.89800045767686    7.15645106921129    8.58505285745432
N         9.59750983161971    6.24145881431043    8.42697995599282
C        10.80915826961576    5.65306585894231    8.23532370881960
C         4.56610467914552    6.55953595257560    8.11588097304345
C         5.55992067262582    7.40188081925812    8.60443313824050
C         7.50031446012067    8.23005880573109    9.16387693295783
C         9.83670728730239    7.44673187140732    9.01075883556618
C        11.85343477397058    6.51642563375492    8.71038885044025
C         3.15880007738832    7.01782262894275    8.23757841933535
C         5.30392630094753    8.67212516815596    9.22284213360687
C         8.87097197849734    8.38769101914305    9.36546956255323
C         6.50673599968216    9.18427629730275    9.57360802373963
C        11.25108496871127    7.63083791359768    9.18732441088733
H        12.90142733957201    6.28954509731193    8.67233620845169
C         2.41892888730184    6.71152683621607    9.37351169319634
C         2.56828543588037    7.75679590393705    7.21967963124177
H         4.33016638155649    9.09878529436626    9.36747466264408
C         9.33083551100260    9.64373180553252    9.99868055200321
H         6.71113719884676   10.11132132695283   10.07279372202214
H        11.71116836965881    8.50307710108205    9.60911863308985
C         1.10801349813395    7.13866520027523    9.48882195141883
H         2.87855639910226    6.13694483038169   10.16459391234168
C         1.25695676621647    8.18269179273649    7.33718128468932
H         3.14329496163854    7.99520418829243    6.33664582950869
C         9.16891632170528   10.86118958336254    9.34478215680182
C         9.92751937427241    9.62555147759648   11.25534450226987
C         0.52461059443259    7.87481415719267    8.47132968111726
H         0.54005640606661    6.89644317296611   10.37529082270494
H         0.80513741124175    8.75664894644322    6.54124668168518
C         9.59775869719158   12.03599832866760    9.93552377449527
H         8.71252393872849   10.87799003152452    8.36558150178666
C        10.34924082716077   10.80263856694844   11.84704541073360
H        10.04834437571824    8.68295364350851   11.76946348042108
H        -0.49879321654204    8.20795887142289    8.56223537347801
C        10.18683471412924   12.01007915601860   11.18860735015545
H         9.47128245583335   12.97519456187090    9.41680314218162
H        10.80589630055536   10.77806699122560   12.82582842971517
H        10.51813272975937   12.92830565672025   11.65077539429265

