47
CSD_code = HAMBON | q = 0 | S = 0 | Stoichiometry = C20H20ClN5Ru | MND = 9
Ru        8.28494860424537    7.75397863401135    0.89114707226080
Cl        9.69586874900822    9.13391028144074   -0.38253879421909
N         9.65575289816536    6.34155777094197    0.52312008686106
N         8.14731468635969    6.65801903473292   -0.76474525882159
N         9.22991778449154    5.93449465734961   -0.63987351908488
N         7.35662727030485    6.59623663281741   -1.76691417468093
N         6.39554248120843    7.44581950482074   -1.71712508063504
C         8.10757103643500    7.96979748553845    3.19914279964782
H         8.77635421491787    7.74433333567867    4.02175602521217
C         7.24953566207000    6.95259200662062    2.69914527307327
H         7.26531452082373    5.96616858899164    3.15091933638252
C         6.28987763584803    7.26419367674954    1.71130898442671
H         5.56666431763723    6.51859714094073    1.39973977462393
C         6.19713276808464    8.58936890776106    1.20994452053144
H         5.42336325071938    8.83955159513139    0.49704429062448
C         7.08635225153947    9.56723150673856    1.66562456731325
H         7.00655365596583   10.58533735215800    1.30008709982564
C         8.03390680268043    9.26519025576282    2.68357541990079
H         8.65827801281630   10.05361904922571    3.08719533540615
C         5.50518995659734    7.43648380301706   -2.76126103821202
C         5.62149669147053    6.61478703592855   -3.89142051268599
H         6.46447202583855    5.94407804213708   -3.95896624856700
C         4.67897312220027    6.67723257560197   -4.89353496236952
H         4.78142839034411    6.04112057829588   -5.76171209337224
C         3.59673342201406    7.54889363109905   -4.81011257924347
C         3.48524230171236    8.36792370418758   -3.68836230032317
H         2.65143318035015    9.05209512859073   -3.61523482492680
C         4.42079674796404    8.31934821030578   -2.67950896582089
H         4.33531308621005    8.96104667482322   -1.81596146099772
C         2.56582679946523    7.61302561797722   -5.89353101380022
H         2.84835437251962    6.99196312545803   -6.73960989268748
H         2.43817582809583    8.63828593017630   -6.23805678187213
H         1.60235921222387    7.26836939656148   -5.51750030760447
C        10.85103261829213    5.90041259450906    1.03479948436151
C        11.50845404875905    4.77927909201343    0.51609355875841
H        11.06059199202804    4.25295546480962   -0.31183401122434
C        12.70269865014003    4.37394897074149    1.06958070915858
H        13.20720972560272    3.50663644030634    0.66906036746117
C        13.27635801897986    5.06248103882361    2.13670887533705
C        12.62007279627259    6.18246366385688    2.63780525565063
H        13.06069363885227    6.73499411180892    3.45509739541719
C        11.42048093440795    6.59926534489881    2.10162386091193
H        10.92097121019071    7.48691218299174    2.46527430286207
C        14.58712325966678    4.61803913418698    2.70634987544912
H        14.73758970152098    5.02266481877284    3.70401382717517
H        15.40297730257375    4.96605527612608    2.07208007846038
H        14.64127436237894    3.53234099457997    2.75136564405346

