77
CSD_code = HAMCAZ | q = 0 | S = 0 | Stoichiometry = C44H28N4Zn | MND = 4
Zn        7.15379729141079   19.37499510729803   11.31950647736797
N         7.89044563779504   19.65200055038033   13.18784988356702
N         8.85825793308988   18.41496918230992   10.79051789424021
C        10.05355256930263   18.52089370810216   12.93211055944727
C         6.01352786275102   20.88898693192316   14.17266522307804
C         7.27614850330853   20.29985416409762   14.21480874631564
C         8.11959474893530   20.28020885340904   15.37716250421066
C         9.25077388447609   19.62398629043563   15.02873198294869
C         9.09464500193157   19.22640530665284   13.65744378820006
C         9.91936651863357   18.14175302865031   11.59737535262168
C        10.88586223240076   17.35611885517923   10.88213154082827
C        10.39463289917635   17.17239983616500    9.63457014723718
C         9.12645309418772   17.84486261286956    9.58451531853740
C        11.29983487136059   18.13630185928924   13.63124321868739
C        12.52428148676365   18.66283777070210   13.23170990461681
C        13.68835441648980   18.30456653861763   13.88721704635018
C        13.64509424696090   17.41192730154326   14.94520260650540
C        12.43091778880404   16.88006382803655   15.34630807807671
C        11.26483352697169   17.24113480608025   14.69604852865823
C         5.52208451647466   21.55454653335472   15.39958491418740
C         6.16494942144564   22.68335118871317   15.89828818053544
C         5.69910864781187   23.30679470128494   17.04163611888190
C         4.58948695687988   22.80819261503384   17.70370541467710
C         3.94522809791239   21.68375309333218   17.21504700277626
C         4.40599801859783   21.06183035763437   16.06881938147055
H         7.87069553728778   20.70710306375453   16.32898987033786
H        10.11434512048380   19.42969624767452   15.63429048036545
H        11.80459295243199   16.98401684772361   11.29170320354785
H        10.83374619585435   16.62082691464496    8.82635949396080
H        12.55516235487513   19.36266013757024   12.40905099498465
H        14.63296360522672   18.72336134852601   13.57170936886502
H        14.55481282471404   17.13110027203575   15.45512490506755
H        12.39222155755986   16.18069201581611   16.16887380571478
H        10.31719839510312   16.82291490497741   15.00351672717486
H         7.02637726499365   23.07459650339423   15.37639402831359
H         6.20277453148019   24.18590412881048   17.41673109383648
H         4.22750929427544   23.29474969643037   18.59736056790070
H         3.08105986823816   21.28934099159285   17.72946159104671
H         3.90786897905593   20.18181291361611   15.68811996647674
N         6.41715267900280   19.09799275211029    9.45115939479440
N         5.44933948250937   20.33502845919974   11.84849550645975
C         5.18113556502679   20.90511301079027   13.05450561176489
C         8.29405035541522   17.86096611336750    8.46635854654996
C         7.03143949998002   18.45011690877960    8.42420721882706
C         5.21296696960873   19.52362277322897    8.98155205353159
C         4.38824322166583   20.60827813521891   11.04162716844621
C         3.91295926307927   21.57758251068532   13.00445205308290
C         8.78545919018184   17.19536104099287    7.23944870480470
C         6.18799543754881   18.46976687818440    7.26185107683774
C         4.25406639687226   20.22915908479231    9.70687917585398
C         5.05683117641494   19.12602719095182    7.61026763400441
C         3.42174607982241   21.39390771549672   11.75687639050268
H         3.47384074195948   22.12913509399882   13.81266985153717
C         8.14255915568009   16.06655596012182    6.74078935419297
C         9.90155035597598   17.68802739591833    6.57018581681711
H         6.43688579065369   18.04285337348619    6.31003370678867
C         3.00780490545284   20.61379409913095    9.00772413004500
H         4.19326700634174   19.32033068902762    7.00470608491883
H         2.50302513562676   21.76602998133158   11.34730078375096
C         8.60837252740286   15.44306233318287    5.59745806016955
H         7.28113010027458   15.67534706532062    7.26270917418250
C        10.36229318550050   17.06605374579271    5.42397602315566
H        10.39970149515196   18.56804757189469    6.95084707416967
C         1.78333208445158   20.08729458861841    9.40722431867927
C         3.04286181451500   21.50897274590986    7.94293075035933
C         9.71799938568024   15.94161592880281    4.93536045759772
H         8.10467849612672   14.56395490732634    5.22239649209020
H        11.22645288004831   17.46043645192169    4.90953043610126
C         0.61928899468467   20.44562110069391    8.75170155888959
H         1.75240826169905   19.38746532530432   10.22987538430976
C         1.87680924087061   21.87008326409526    7.29264565114239
H         3.99051867212669   21.92715814473610    7.63548522115061
H        10.07994493608242   15.45502952010708    4.04170962861415
C         0.66260702348185   21.33826210474081    7.69372266052942
H        -0.32533813960012   20.02684614083507    9.06717543577144
H         1.91554954050640   22.56946573742393    6.47009365452193
H        -0.24708756327107   21.61912314881650    7.18378184343946

