105
CSD_code = HAMCIH | q = 0 | S = 0 | Stoichiometry = C56H42N6Zn | MND = 6
Zn       -0.00000028429110   -0.00001771978991   -0.00001073216255
N        -1.43279831903602    0.37827814763971   -1.39487961329904
N         0.44080546590694    1.98409083869584    0.09292827078449
C        -1.12918095354650    2.80288525287261   -1.60333997437441
C        -2.27475713182716   -1.90013640903667   -1.72011995083908
C        -2.26745645514626   -0.52615420383907   -1.96581598541673
C        -3.14661607768847    0.13786921815041   -2.89062063892610
C        -2.83324959836720    1.45374819268004   -2.85010359854582
C        -1.74940525566718    1.59095109944047   -1.91417583818035
C        -0.09246740101711    2.96170442481817   -0.68168484980712
C         0.59971059800628    4.20173104116469   -0.45068460836661
C         1.54814322730084    3.94829438109787    0.48016851999117
C         1.43638236474314    2.55392635196818    0.81568658446135
C        -1.58802959507467    4.01098313256771   -2.32363348912768
C        -1.43293947524692    4.11416305354219   -3.70294530430006
C        -1.85558139066822    5.24636428404312   -4.37519065263336
C        -2.44373989830818    6.28972789034002   -3.67994246898636
C        -2.60339522727750    6.19608824829429   -2.30746428351682
C        -2.17608681177523    5.06668971460763   -1.63334038505955
C        -3.23985778681314   -2.73214922858010   -2.46962084233946
C        -2.78347548700431   -3.71985608445585   -3.33831128017246
C        -3.67720285178627   -4.50086214268201   -4.04810953053591
C        -5.04039264664533   -4.31073097098479   -3.89624370285123
C        -5.50370371450864   -3.33341758765030   -3.03118093839439
C        -4.61127313537067   -2.54733806965734   -2.32543090824043
N         1.54177844248057   -0.31398003329606   -1.75380083863329
C         2.71886269089145    0.43301277611344   -1.60112934043174
C         2.78728339160994    1.74062035570957   -2.07109005429378
C         3.92039944004546    2.50038616472130   -1.85472404892309
C         5.00744990253086    1.96090582731929   -1.18848834273871
C         4.94883228865047    0.65455342141416   -0.73176863091316
C         3.81276175900547   -0.10591802688870   -0.93188180589858
H        -3.89414502873594   -0.34198557042740   -3.49162976112053
H        -3.29224437863042    2.25814580674248   -3.39183612761109
H         0.39782818856273    5.12836849407777   -0.95252897577536
H         2.27334113027489    4.62695626169381    0.88522512823207
H        -0.96970829537970    3.30210543927962   -4.24535983828930
H        -1.72523784426928    5.31548844556788   -5.44560216561009
H        -2.77544408204668    7.17297723439213   -4.20570698054904
H        -3.06298835675207    7.00666552909661   -1.76037963296841
H        -2.30337029211278    4.99214647669904   -0.56271255039512
H        -1.71950830282631   -3.86651676810443   -3.45946416286870
H        -3.30910844790655   -5.26073568515586   -4.72248689349914
H        -5.73841132687048   -4.92230059309691   -4.44895024448007
H        -6.56650093542103   -3.18372227302726   -2.90551430224580
H        -4.96824715181289   -1.79260021997761   -1.64160114438795
H         1.93874717167576    2.16234328737841   -2.59058768464125
H         3.95596744280946    3.51865958678105   -2.21255307722973
H         5.89370809447401    2.55542440215660   -1.02550020060377
H         5.79591405342993    0.22023113477816   -0.21973871775774
H         3.76157509047157   -1.11944837780510   -0.56015780701644
H         1.69900318950229   -1.31383856186411   -1.73861142289004
H         0.99533158047934   -0.03843976958301   -2.56012125217471
N         1.43280479418887   -0.37824516432254    1.39487584452824
N        -0.44087329557620   -1.98410583868683   -0.09299185842857
N        -1.54178777941291    0.31398238350918    1.75379090014367
C        -1.43643238263634   -2.55391626825756   -0.81572432920501
C         2.27469762723527    1.90015972458256    1.72013221962978
C         2.26741631097234    0.52617891787935    1.96583527935140
C         1.74939572698036   -1.59094197406254    1.91416549873015
C         0.09243562778744   -2.96170944783303    0.68161914094206
C        -2.71884136802797   -0.43301883859142    1.60115910237112
H        -1.69906675625921    1.31381788773799    1.73865863527638
H        -0.99531815057794    0.03843182773265    2.56009840216135
C        -1.54821912269336   -3.94829924247764   -0.48019009402772
C         3.23981821733991    2.73212855619208    2.46968047438037
C         3.14659677742410   -0.13784750740294    2.89065121007358
C         1.12917425120603   -2.80289535028484    1.60329944889072
C         2.83323603691810   -1.45374480986848    2.85012146686495
C        -0.59974201033693   -4.20175776152828    0.45062456298423
C        -2.78723177678947   -1.74059536317766    2.07120209217434
C        -3.81272669181981    0.10589182941990    0.93191205444235
H        -2.27341314557310   -4.62693878150847   -0.88524083274945
C         2.78342392666419    3.71984539434676    3.33834625023671
C         4.61124074575558    2.54731420672314    2.32550073369489
H         3.89410845705777    0.34201240247698    3.49163823999351
C         1.58804598428437   -4.01097858367480    2.32358133360632
H         3.29224353465009   -2.25813856605857    3.39183667026237
H        -0.39784254385681   -5.12840629980422    0.95244545007954
C        -3.92032185581443   -2.50038918412698    1.85483210304630
H        -1.93864389359838   -2.16230672638930    2.59065530731717
C        -4.94879350002547   -0.65457716402688    0.73185867815241
H        -3.76155400111887    1.11942281868039    0.56020420403597
C         3.67714169795708    4.50083268820112    4.04816457712269
H         1.71945755013513    3.86648053003222    3.45951221653479
C         5.50366176011065    3.33344355793338    3.03120747072783
H         4.96821742640056    1.79258838003255    1.64165517703655
C         1.43291020954819   -4.11420561014021    3.70288506688137
C         2.17617272170855   -5.06663607726095    1.63327834867911
C        -5.00737992184153   -1.96093081582755    1.18859086188724
H        -3.95584866222234   -3.51867511180692    2.21263694276697
H        -5.79584790855817   -0.22027323215170    0.21977272781906
C         5.04033215844469    4.31072364818758    3.89629243613879
H         3.30903624474256    5.26075524971756    4.72247403594486
H         6.56645939164537    3.18376230636673    2.90554293403000
C         1.85569157151563   -5.24633214421885    4.37512084599245
H         0.96975471249624   -3.30213300118935    4.24534882785054
C         2.60338053066081   -6.19606933984232    2.30735048740692
H         2.30333987585032   -4.99215429548745    0.56262821196409
H        -5.89360367631626   -2.55548514739851    1.02556039048864
H         5.73833788904326    4.92230892227207    4.44899169695718
C         2.44380785033824   -6.28969076625281    3.67983419330231
H         1.72527219481597   -5.31550540407099    5.44550949286047
H         3.06305293428319   -7.00658315156296    1.76026179832669
H         2.77552213187226   -7.17293188268022    4.20557014687041

