77
CSD_code = HAMCED | q = 0 | S = 0 | Stoichiometry = C44H28N4Zn | MND = 4
Zn        8.60622900127939   10.14100528415059    5.81572937781897
N         8.76825865033862    8.75482668798936    4.34617651769263
N         7.02830378787927    9.13319356091104    6.59186758794196
C         9.69756905530215    8.72997110604504    3.35250570786270
C         9.47548269610268    7.59118922570574    2.50593414350316
C         8.40935983377297    6.92907534133677    3.01262044179793
C         7.96824458091137    7.66971457046312    4.16146222732787
C         6.88716225806114    7.30357991191197    4.96170138591784
C         6.45826987198103    8.00545704231994    6.08707001170189
C         5.30278957395363    7.65342150371803    6.86422985261168
C         5.19446904367916    8.57926950215234    7.84545465227564
C         6.28359031440851    9.49913466491721    7.67025973793369
C        10.71221049328634    9.66541887189981    3.15658543973471
C         6.13197675900589    6.08861536002433    4.58201040804971
C         5.41702918563062    6.04746281274017    3.38901530854438
C         4.70997554061542    4.91268615886616    3.03495246545610
C         4.71282977946762    3.80376996846741    3.86455581767728
C         5.42310585162009    3.83622169130997    5.05296977962860
C         6.12586169981603    4.97218687487999    5.41220477547106
C        11.63325446477653    9.45249435545059    2.01770084014460
C        11.66039667069664   10.35073452718047    0.95556058216830
C        12.51969177042997   10.15003105715036   -0.10962749825851
C        13.36664717623082    9.05441306337246   -0.12370274940329
C        13.34848147417508    8.15783414630278    0.93167105662230
C        12.48541555265837    8.35283171815091    1.99483859185185
H        10.05678270787550    7.34311345690545    1.63945319247448
H         7.96257087088125    6.02272368222919    2.65329815584173
H         4.65760111660110    6.81947699090671    6.66781041956397
H         4.44327557382073    8.65036742334273    8.60767430866363
H         5.41214429436686    6.91587520637233    2.74613642003778
H         4.15459450946554    4.89352951821934    2.10846673256661
H         4.16278576287583    2.91707263701763    3.58586940830893
H         5.42945954957865    2.97290960368191    5.70246023247758
H         6.68454210231368    4.99798390803878    6.33666406274521
H        10.99567502855444   11.20247376759191    0.96707076917241
H        12.52879619474050   10.85101673358348   -0.93166322574162
H        14.03916691168410    8.89995651598043   -0.95457713731733
H        14.00953754149791    7.30332555279689    0.92662273838149
H        12.47317438919732    7.65756722968336    2.82184323955503
N         8.44420562742212   11.52717056325257    7.28529613906666
N        10.18416121594461   11.14880860715121    5.03960869324292
C         6.50017109411239   10.61665307632126    8.47480931029963
C        10.92882881870779   10.78290353970851    3.96117309980450
C         7.51485054793316   11.55206662776642    8.27892361540623
C         9.24427618429891   12.61223069440687    7.47006540962195
C        10.75425618112723   12.27649092008951    5.54446079468295
C         5.57904505715640   10.82966050704103    9.61361080179458
C        12.01796307414377   11.70275431298955    3.78598381066415
C         7.73694550513369   12.69083868104430    9.12550538081201
C         8.80314135866401   13.35288840959605    8.61888815779343
C        10.32540305936018   12.97832952782475    6.66986830425429
C        11.90971595008540   12.62853908117068    4.76727650727162
C         5.55178606822330    9.93148299999307   10.67579986267488
C         4.72691431015380   11.92935006683058    9.63633720745167
H        12.76912106582549   11.63168351646979    3.02372627160423
H         7.15560673783662   12.93894415761299    9.99195194769313
H         9.24996831475152   14.25920907781089    8.97824171071372
C        11.08065891754534   14.19322631554953    7.04963718218044
H        12.55494113792289   13.46244870211216    4.96372371102310
C         4.69240455431191   10.13227173886070   11.74090193939245
H         6.21648854838086    9.07972682080118   10.66439512281108
C         3.86376073929637   12.12443254107242   10.69941769093032
H         4.73925164863843   12.62456861435599    8.80929500646273
C        11.79557889266817   14.23425194954219    8.24265304472782
C        11.08687528418656   15.30970623042905    6.21951222953911
C         3.84547717787143   11.22791361375559   11.75484090478808
H         4.68320911496478    9.43133375122754   12.56297758354376
H         3.20272915528756   12.97896110049154   10.70436052487016
C        12.50271329340900   15.36895133510901    8.59680086578254
H        11.80037673685131   13.36580042059012    8.88547973406752
C        11.78971141453832   16.44559545133744    6.57883343335322
H        10.52821067324130   15.28401037297420    5.29504025610999
H         3.17288876460634   11.38243535573867   12.58564796917931
C        12.49996586904701   16.47791744321235    7.76726397740368
H        13.05807199978087   15.38800940109876    9.52330179337126
H        11.78343921861376   17.30894955449605    5.92939756893910
H        13.05007504842471   17.36455368639846    8.04601665786991

