77
CSD_code = HAMDEE | q = 0 | S = 0 | Stoichiometry = C44H28N4Zn | MND = 4
Zn       -0.00000187824467   -0.00000128922006    0.00000112448445
N         1.50331151077501   -0.73408663702667   -1.14481096028424
N        -0.88363766050194   -1.82365811994344    0.01044106701161
C         2.57057195804798   -0.04067099023216   -1.62626188327224
C         3.41766084314903   -0.91660974439502   -2.38660411079348
C         2.83641936094333   -2.13862320929335   -2.36568741148014
C         1.64121065373247   -2.01645836906248   -1.57878741785399
C         0.76068018003068   -3.06625954370954   -1.32322540601579
C        -0.40668112790178   -2.95859415030715   -0.56902660151485
C        -1.26715483486292   -4.06489536236924   -0.25505281743475
C        -2.26967533601466   -3.57550778316720    0.51109094433477
C        -2.02488861268836   -2.16872149205312    0.66620420576083
C         2.83077153245034    1.31251451760823   -1.41504991401771
C         1.08943198431988   -4.39467254102861   -1.88672497481127
C         2.21754978960270   -5.08702830047302   -1.45816797032219
C         2.51714174840318   -6.33091569546503   -1.98374871733487
C         1.69795185006891   -6.89559511943728   -2.94705748666253
C         0.57459273002815   -6.21159884613613   -3.38081807567502
C         0.26952474535678   -4.97045841999848   -2.85229323363373
C         4.04564518114318    1.88432374102212   -2.03694244556578
C         5.08130727420805    2.36966729352919   -1.24450922147531
C         6.21877246397920    2.90001466689821   -1.82578586012118
C         6.33350295544693    2.95799956814359   -3.20468864788097
C         5.30517069736742    2.48135662692213   -4.00048209868462
C         4.16914325476624    1.94536588079361   -3.42157542963925
H         4.33468106041634   -0.63011186051178   -2.86320257312671
H         3.17546880700680   -3.03908539892227   -2.83938427561201
H        -1.10857095513021   -5.07875268529086   -0.56690897170781
H        -3.08955931896659   -4.11188158380702    0.94738847343405
H         2.85201463880778   -4.64753718479743   -0.70204030896294
H         3.39280782889046   -6.86209440775939   -1.63992915573816
H         1.93391316052049   -7.86604085571852   -3.35811022324225
H        -0.06659667471749   -6.64700884144833   -4.13343851141731
H        -0.60415887316877   -4.43299657451009   -3.19171721614029
H         4.99187871010801    2.31873221718511   -0.16895844056118
H         7.01879813964377    3.26931715394383   -1.20070608529019
H         7.22138618726212    3.37368460796034   -3.65775047360912
H         5.38849856163120    2.52733860376787   -5.07663495541723
H         3.36311248899443    1.57866496493377   -4.04066280159893
N        -1.50331208490689    0.73408667755225    1.14481222766366
N         0.88363854340092    1.82365853918779   -0.01044021549123
C        -2.83079633190326   -1.31250303063082    1.41501123671074
C         2.02487526390199    2.16872873679141   -0.66622494104533
C        -2.57058683063198    0.04067720078950    1.62624044102644
C        -1.64119794322784    2.01645274783100    1.57880992907921
C         0.40669474217255    2.95858828703751    0.56904978214078
C        -4.04569199583589   -1.88430439554328    2.03686726045671
C         2.26966484767122    3.57551388842384   -0.51110316283674
C        -3.41767109795519    0.91661435552098    2.38658928364157
C        -2.83641071714586    2.13861922316662    2.36570356330199
C        -0.76065631890245    3.06624917266644    1.32326506307995
C         1.26716313016506    4.06489243396342    0.25507122366208
C        -5.08133605375776   -2.36962963531643    1.24439919742604
C        -4.16923162327887   -1.94535746076311    3.42149599819855
H         3.08953800748655    4.11189273378266   -0.94741440565902
H        -4.33470071853454    0.63012178827142    2.86317272448410
H        -3.17545120753655    3.03907717373414    2.83941535567857
C        -1.08938405756102    4.39465353571166    1.88679925503529
H         1.10858714412399    5.07874579926818    0.56694341015511
C        -6.21882592983282   -2.89996685561058    1.82563743241747
H        -4.99187429200634   -2.31868716324619    0.16885150687096
C        -5.30528342605741   -2.48133890305291    4.00036446555276
H        -3.36321396714350   -1.57867355068835    4.04061056495152
C        -2.21749686619392    5.08703691175941    1.45827416422296
C        -0.26945647816696    4.97040224226179    2.85237258513684
C        -6.33359875249589   -2.95796102969729    3.20453646158164
H        -7.01883763842490   -3.26925416409841    1.20053059444202
H        -5.38864386493842   -2.52732928883646    5.07651459417674
C        -2.51706511631901    6.33091391006391    1.98389276800963
H        -2.85197690582906    4.64757557681903    0.70214198695554
C        -0.57450042512007    6.21153254543389    3.38093477232300
H         0.60422422931217    4.43291922506975    3.19177055734315
H        -7.22150135016258   -3.37363770172623    3.65756844526159
C        -1.69785562588540    6.89555580951789    2.94720684013704
H        -3.39272826713174    6.86211388822721    1.64009881281256
H         0.06670398064174    6.64691282761774    4.13355954246831
H        -1.93379902689315    7.86599311211501    3.35828954049909

