77
CSD_code = HAMFEG | q = 0 | S = 0 | Stoichiometry = C44H28N4Zn | MND = 4
Zn        0.00000047720314   -0.00000098099515    0.00000047664736
N        -1.51457981476535   -0.01132199003575   -1.34722250683634
N         1.02907108693318    1.29690135382803   -1.16876424768913
C        -0.59874878488664    1.56978601999019   -2.98576429957720
C        -3.02228478483342   -1.59490401176817   -0.23279540135730
C        -2.66591720518183   -0.73233254493399   -1.26813899865093
C        -3.48767309069773   -0.46539744340184   -2.41542167161234
C        -2.80812736038488    0.41440310781276   -3.18724901175246
C        -1.57651234579965    0.69989086568794   -2.50568259054614
C         0.60674898526928    1.84319576541059   -2.34125125335146
C         1.57607957443467    2.79191450987201   -2.81391311733668
C         2.58803571607299    2.79792853927349   -1.91536803617727
C         2.23915799330764    1.85363300546624   -0.89093418369571
C        -0.86245518298466    2.26241837153741   -4.26656550665484
C        -0.06676112640376    2.01292793996643   -5.38041357388921
C        -0.31406726683902    2.66059518938099   -6.57725081889111
C        -1.35453314675638    3.56930892252262   -6.67498613954012
C        -2.14906391673237    3.82572397601596   -5.57003480788145
C        -1.90728394901385    3.17512065147369   -4.37370365153648
C        -4.32258686291684   -2.29391230179429   -0.33662113133601
C        -4.54712280493574   -3.22356146237655   -1.34714833597394
C        -5.76272088305699   -3.87678063353254   -1.44016617345662
C        -6.77031218239461   -3.60566248394489   -0.52958847741981
C        -6.55519754019502   -2.68057941118804    0.47821597466862
C        -5.33827695804264   -2.03071432528583    0.57712647210493
H        -4.45484204071582   -0.89221925587802   -2.59590342444198
H        -3.10297765367201    0.82935242608655   -4.13120209703847
H         1.47950976727009    3.38255459156806   -3.70389335983996
H         3.47951423270515    3.39407340384261   -1.92817567196131
H         0.74147103540747    1.30003417699734   -5.30330695184262
H         0.30742184031326    2.45586380704759   -7.43689812808650
H        -1.54535418281068    4.07648683513072   -7.60921084426195
H        -2.96015529223354    4.53588461240992   -5.64038050509533
H        -2.52187085400258    3.37861388720708   -3.50865981136560
H        -3.75768960624960   -3.43773533584903   -2.05305846662101
H        -5.92463123366520   -4.59995062521236   -2.22631129340174
H        -7.72013585321936   -4.11414368689022   -0.60490089037914
H        -7.33859148553717   -2.46468774932568    1.19019711168537
H        -5.16957142307284   -1.30545655111485    1.36001695472924
N         1.51458183028113    0.01132032373933    1.34722272066781
N        -1.02907097804722   -1.29690313932509    1.16876371383743
C        -2.23914280639041   -1.85365923579355    0.89091867049038
C         3.02231171971822    1.59485858170381    0.23276743405347
C         2.66593373957140    0.73230588447584    1.26812352679026
C         1.57649936682335   -0.69986777660394    2.50569913209008
C        -0.60676239356040   -1.84317143837551    2.34126671110089
C        -2.58802354904872   -2.79794675172457    1.91535933322786
C         4.32263632604223    2.29382987438061    0.33656586741891
C         3.48768508593575    0.46537776333906    2.41541125892494
C         0.59872432442575   -1.56974292391038    2.98579257262759
C         2.80811888650011   -0.41438793566802    3.18726024061808
C        -1.57608741682878   -2.79189736346274    2.81392657785200
H        -3.47949111523619   -3.39410850304591    1.92815808089400
C         4.54722296574014    3.22347690809042    1.34708284248179
C         5.33829921931448    2.03059553389149   -0.57720081769747
H         4.45486400171661    0.89218131857530    2.59588230613237
C         0.86240532757225   -2.26233642992057    4.26661949306364
H         3.10296012178312   -0.82931932636420    4.13122407453899
H        -1.47952577664848   -3.38251949350969    3.70391980748600
C         5.76284554280110    3.87665545454229    1.44007434189688
H         3.75781014493974    3.43768150446782    2.05300550425242
C         6.55524351082204    2.68042128656307   -0.47831789767879
H         5.16955324032166    1.30533986443572   -1.36008365856324
C         0.06669020320421   -2.01280496239548    5.38044338717901
C         1.90722791707237   -3.17503936197668    4.37380955042884
C         6.77040958786260    3.60550068773280    0.52947801387932
H         5.92479504639816    4.59982517818092    2.22621039367796
H         7.33861631296274    2.46449995119932   -1.19031183788420
C         0.31397167499657   -2.66042973729162    6.57730853567268
H        -0.74153917631394   -1.29991242460606    5.30329574730693
C         2.14898342203722   -3.82560027490983    5.57016863987452
H         2.52182973203683   -3.37856724676397    3.50878436170505
H         7.72025172118882    4.11395044039536    0.60476933428666
C         1.35443344558919   -3.56914242199990    6.67509613338291
H        -0.30753362254887   -2.45566628262616    7.43693663711999
H         2.96007042553171   -4.53576205436623    5.64055484787708
H         1.54523611451639   -4.07628663607401    7.60934280865350

