90
CSD_code = HAMFUW | q = 0 | S = 0 | Stoichiometry = C50H33ClN4OZn | MND = 5
Zn        3.07877256257568    1.75026369906684    4.07679007578112
N         1.60296821805353    2.38941285553456    2.82869303074981
N         4.11442135291623    3.44195757923618    3.73517277683642
N         4.60120679275553    1.01776202699316    5.19224546014792
N         2.08417079409816   -0.02641613133169    4.30326972112470
C         2.53947195723330    4.57758022379975    2.23672889384992
C         6.08107573487244    2.97340909446880    5.12213887121609
C         3.68738500423171   -1.19047724443267    5.75021212841390
C         0.08932032158338    0.46278207835748    2.95892830325844
C         0.45357605900611    1.73429878640982    2.51483554112986
C        -0.33865050416991    2.53750185500541    1.62472069344141
C         0.34933982110508    3.68469166473203    1.41889859091513
C         1.56837996542039    3.57890507114892    2.17246646048830
C         3.71767702003892    4.49741223255682    2.97799935223586
C         4.71204954021337    5.53446347520771    3.02860294970616
C         5.69979579528270    5.08866523142584    3.83858997296516
C         5.31980331064106    3.77037372035734    4.26787092673286
C         5.72609234701090    1.69318283805099    5.54604668412783
C         6.52414787846587    0.88465544506569    6.42603887228089
C         5.85541751150432   -0.27847120299000    6.59982457847636
C         4.65489730150036   -0.18821546166234    5.81501064727120
C         2.48941463199137   -1.09248149323043    5.04279683973493
C         1.49602302102689   -2.12922907723170    4.98842476543297
C         0.48458068158338   -1.66252949687038    4.22001665901092
C         0.86968292986042   -0.34892339554141    3.78310626015414
C         2.29944458147396    5.81637452628602    1.46280468194751
C         2.28381235450611    5.78827482293509    0.07195418624520
C         2.06233026729527    6.94737421762182   -0.64956320706932
C         1.84832015446166    8.14693600742279    0.00860228673004
C         1.85932308425036    8.18267883734648    1.39295956149230
C         2.08594187870593    7.02585679392724    2.11649214699210
C         7.36239123432351    3.52720032356067    5.61588517119807
C         8.41719062914083    3.75394034545346    4.73751757712493
C         9.61509858849915    4.26866739313372    5.19907597753284
C         9.77274176032856    4.56824674665019    6.54195226072838
C         8.72686999008208    4.34794774421013    7.42239580073731
C         7.52987007716595    3.82828582130668    6.96373134843692
C         3.95863689426822   -2.44702419403168    6.48125900191571
C         5.04272772463936   -3.24505752194408    6.12709117682502
C         5.30308232538340   -4.41872882412322    6.81090007039341
C         4.48952543530445   -4.80775426013450    7.86191910215249
C         3.40845814775222   -4.02014821428283    8.22048617462864
C         3.14123199186789   -2.85110773559913    7.53194166786746
C        -1.21511478445055   -0.07064215733387    2.50575877395236
C        -1.27195813828132   -1.17679529474698    1.66370186888551
C        -3.62175848986854    0.02927169352759    2.48984360490898
C        -3.66907478203161   -1.07141522385390    1.65107832284381
C        -2.49121877057134   -1.67153146235071    1.23801190160904
C        -2.40310901487523    0.52845473430742    2.91278526011753
O         1.74504338180392    2.51618024397476    5.84939677099306
Cl        2.78214846774698   -0.72345965983984   10.61614073438342
C         1.94389276934425    1.76694551356729    6.97745672823677
C         3.11630421584731    1.96154634029766    7.69843311235745
C         3.37597384456571    1.19633182079758    8.81738046673144
C         2.44983495746507    0.25019320723280    9.22858506212354
C         1.26435247157069    0.07078075925712    8.53464454132704
C         1.01454087914710    0.82843579336634    7.40459755934190
H        -1.28621851892618    2.25178532167613    1.21128569931161
H         0.06400665647762    4.52664010670648    0.81897220474097
H         4.65580174584361    6.47140259691111    2.50960215508335
H         6.60042667725455    5.59671253629192    4.12358274134151
H         7.46848040084609    1.17302471946268    6.84502582610115
H         6.13599757191363   -1.11679997767363    7.20676636212008
H         1.57169934322238   -3.08479896604616    5.46875013169180
H        -0.43505556912522   -2.15392372939630    3.96841639442751
H         2.45589612573426    4.85212286717334   -0.43938042924586
H         2.05688156293229    6.91477738586485   -1.72941299157557
H         1.67364118631008    9.05114955965961   -0.55561119613460
H         1.69082225436559    9.11569157246810    1.91105568852815
H         2.09078762802088    7.05029149051354    3.19675223512880
H         8.29342163261170    3.51480614148719    3.69118359773048
H        10.42882626123362    4.43651187524554    4.50856633900582
H        10.70778821782415    4.97199759973666    6.90118722573958
H         8.84414721230303    4.58197150077074    8.47058591794747
H         6.71199296275200    3.66011539539583    7.64986462050369
H         5.67454023006996   -2.94273634183170    5.30431531095758
H         6.14500238449641   -5.03169693495174    6.52325429016226
H         4.69691737658446   -5.72153691711371    8.39897755034635
H         2.77170961092961   -4.31596297480380    9.04149983442394
H         2.30228679277357   -2.23248733946785    7.81234092750096
H        -0.35162740496480   -1.63918149168524    1.33760373516400
H        -4.53740224349998    0.50131769943712    2.81545207621814
H        -4.62077847718892   -1.45937809359461    1.31942867049022
H        -2.52270870300870   -2.52824573081181    0.58068789804249
H        -2.36729752864229    1.38764504803434    3.56807568839318
H         3.81844231230340    2.70414064978844    7.35579658082494
H         4.29389478287143    1.32805317350031    9.36752357421681
H         0.54242603699929   -0.65677851451013    8.87172180690980
H         0.10183427491723    0.67536170528304    6.84509464474117
H         0.87314302810229    2.31537455441310    5.48338613998323

