77
CSD_code = HAMFIK | q = 0 | S = 0 | Stoichiometry = C44H28N4Zn | MND = 4
Zn       -0.00000091610821    0.00000051213562   -0.00000560746091
N         0.75846792125179    1.86351156231576   -0.23748379402562
N         1.62229868865269   -0.52094188885669    1.09901866247663
C         2.86389974284712    1.59329624521833    0.99569952277101
C        -1.01366029152008    2.83843868878587   -1.62896069653510
C         0.20800172015022    2.87756816219836   -0.95864585551094
C         1.09632102678802    4.00621739754074   -0.96929255999621
C         2.17949365520077    3.65840001595305   -0.23639595020247
C         1.95568594216209    2.31639223885190    0.22401726809688
C         2.69075707991501    0.26859990973858    1.39340296870824
C         3.62933435067054   -0.46205864017185    2.19850600480429
C         3.11549233441874   -1.70225071046121    2.37002862694063
C         1.85360330360985   -1.72739337592476    1.68448723190531
C         4.10449924028901    2.28250221129375    1.41511029689886
C         4.04649407113738    3.37030390786915    2.28080178249511
C         5.20506557404936    4.01536799570672    2.67389738901145
C         6.43460514499001    3.58640650659290    2.20259114980573
C         6.50053584974362    2.50679456160882    1.33770336965283
C         5.34380081392237    1.85629770465355    0.94787758967715
C        -1.44418827000962    4.06486231973619   -2.33649550435166
C        -1.56487098423331    4.07862166602981   -3.72248040184286
C        -1.96312209458054    5.22894090958715   -4.37928021131679
C        -2.25067807816626    6.37725870873902   -3.66051941817931
C        -2.13472917572034    6.37120654601603   -2.28059347741849
C        -1.73111319963312    5.22389196950628   -1.62207116524504
H         0.91625451098751    4.92886132618242   -1.48560937937022
H         3.05730375902708    4.24142871576691   -0.03690124734597
H         4.55128721697525   -0.07033086141277    2.58157004537852
H         3.54573732496830   -2.52751134809948    2.90296785020667
H         3.08639722440960    3.70058013444038    2.65031146744837
H         5.14847692372229    4.85609523215646    3.35001067291594
H         7.33862221579338    4.09233326683382    2.50788987356384
H         7.45707294314061    2.17046671633197    0.96479040033203
H         5.39253871821540    1.01784381096003    0.26813459077350
H        -1.33387084277819    3.18372159808940   -4.28219615554921
H        -2.04924496171837    5.22955667636705   -5.45623768807558
H        -2.56397999893901    7.27408056772525   -4.17427975752444
H        -2.35958082923722    7.26373888528988   -1.71525864369306
H        -1.64406974963132    5.21557519992439   -0.54522421076596
N        -0.75847208211803   -1.86351048478389    0.23747758007505
N        -1.62230763163211    0.52094404053729   -1.09902885009297
C        -1.85365597937335    1.72742623354526   -1.68442031603777
C         1.01357572800567   -2.83838523871291    1.62909010905598
C        -0.20805395323262   -2.87753826986541    0.95871978376481
C        -1.95565377619070   -2.31641420069140   -0.22409274888605
C        -2.69072825502049   -0.26862472330049   -1.39348383236460
C        -3.11553051333707    1.70227238394919   -2.36998718756201
C         1.44404952620979   -4.06475829518923    2.33674346449547
C        -1.09636615536741   -4.00619264560393    0.96933891075417
C        -2.86383746097061   -1.59334121344777   -0.99583344688467
C        -2.17948096607711   -3.65841218838847    0.23633943668357
C        -3.62931497278431    0.46204209812645   -2.19856821282709
H        -3.54580509837641    2.52755030198141   -2.90287559313703
C         1.56468342958958   -4.07838426662565    3.72273575620202
C         1.73097959439815   -5.22386115165014    1.62244222563756
H        -0.91633671513488   -4.92881601591769    1.48570567556820
C        -4.10436847810862   -2.28260424177363   -1.41535851347769
H        -3.05727048400678   -4.24145410036995    0.03679362484845
H        -4.55124023940547    0.07029824122443   -2.58168182077881
C         1.96288839355581   -5.22864467885394    4.37966439120545
H         1.33367860573034   -3.18342653551635    4.28235293158151
C         2.13454891629260   -6.37111884574019    2.28109293809702
H         1.64397803581100   -5.21564842094598    0.54558988769206
C        -4.04622002978192   -3.37038019405507   -2.28107390057691
C        -5.34373666102071   -1.85649033277249   -0.94822089283627
C         2.25045015317155   -6.37703643468414    3.66102715305064
H         2.04893392632256   -5.22917194190491    5.45661793740532
H         2.35937140349348   -7.26372799007399    1.71584771802446
C        -5.20471677987938   -4.01550494248664   -2.67429023755261
H        -3.08606958991616   -3.70058496710969   -2.65050768167023
C        -6.50039727214890   -2.50704785936322   -1.33816867649772
H        -5.39258635458380   -1.01806067578757   -0.26845613487516
H         2.56368498114756   -7.27382658341876    4.17488459479098
C        -6.43432428125797   -3.58663061491082   -2.20308192221069
H        -5.14801607943081   -4.85621042493304   -3.35042105613798
H        -7.45698755762589   -2.17079330744787   -0.96532619142260
H        -7.33828323170729   -4.09260655825959   -2.50847194255662

