115
CSD_code = HAMGOR | q = 0 | S = 0 | Stoichiometry = C60H46Cl2N4O2Zn | MND = 6
Zn       -0.00000400517819    0.00000322987898    0.00000211165835
N        -1.50864545148114    0.73012440083968    1.14848650957702
N        -1.07817544515610   -1.68220071424448   -0.35313030955398
C        -3.04601459688959   -1.17634192920563    1.02001151183824
C        -0.51007034352440    2.87451889149952    1.79180139650715
C        -1.52314080608667    1.91538777922463    1.80859550337842
C        -2.73790837599175    2.03593093820434    2.56730503323680
C        -3.45018616681355    0.90656040048035    2.34735370912552
C        -2.66339920390342    0.08927519448534    1.46513514081328
C        -2.28899569222850   -1.99006313231995    0.17764149384842
C        -2.68102095999635   -3.31250241807685   -0.22936470513385
C        -1.69034195904831   -3.78385764608660   -1.02033464229979
C        -0.69024435738417   -2.75207166527274   -1.09185300472594
C        -4.34092303914877   -1.70753954815756    1.50328156010582
C        -4.51316649385384   -2.02695318675951    2.84628320475772
C        -5.72044600352445   -2.52472074455308    3.30113517979837
C        -6.77345813124683   -2.70643454812580    2.42034002505108
C        -6.61121777975603   -2.39122959431353    1.08175944933988
C        -5.40268618952918   -1.89737352972793    0.62507655818299
C        -0.72878528675929    4.11299177527031    2.56818949371922
C         0.11187120519662    4.43702073806694    3.62879847993274
C        -0.09916570555697    5.58739629194953    4.36667885746531
C        -1.14661694454029    6.43621445623232    4.04943419372163
C        -1.98158860150694    6.12774716049363    2.98847916510368
C        -1.77680607667030    4.97360625820988    2.25420805979472
O         1.19323356157534   -0.94605640930579    1.87430834921927
Cl        3.53864382470108    0.71968338753277    2.60497189280229
C         1.03600641499712   -0.20305804875695    3.00273761417685
C         2.03624339818457    0.63766632912433    3.47743255164218
C         1.84231989787608    1.40040826586251    4.61329898944139
C         0.63873527835198    1.34896988412796    5.30115409150251
C        -0.37193140526223    0.49801690072095    4.84192558662326
C        -0.15427431180850   -0.27322812928572    3.71252798647572
C         0.42867715202358    2.20603402323640    6.51119779281033
C        -1.68319991537764    0.42124110694672    5.55886112546457
H        -3.00110559790703    2.86935176040753    3.18911445886065
H        -4.41526051130300    0.64668126958909    2.73759799689361
H        -3.58732358834292   -3.80679276916910    0.06283770816382
H        -1.62539484653994   -4.74378251719476   -1.49461064001876
H        -3.68826933324983   -1.89299952843897    3.53171339723136
H        -5.84011986823894   -2.77273171097800    4.34598442144290
H        -7.71699290505311   -3.09353338817092    2.77591838956082
H        -7.42979283246071   -2.53060853097817    0.39050307135459
H        -5.27750541573260   -1.64789146075987   -0.41839868398480
H         0.92413964643145    3.76999941607346    3.87449793747146
H         0.55668649205448    5.82400898501883    5.19240863648545
H        -1.30986888173779    7.33568773679499    4.62477320644048
H        -2.79582398561946    6.79006349832431    2.73181249626181
H        -2.42334188548784    4.73679529734989    1.42161293151507
H         2.63857707696944    2.04207436735528    4.96082682687650
H        -0.91776945095994   -0.93807330824497    3.34143327886951
H        -2.15246491736702    1.40312319428487    5.59452494826001
H         1.32652340995455    2.77163255243071    6.74488225433386
H         2.09638003305658   -0.80296917688857    1.54563459108761
H         0.16816322822551    1.59629863765783    7.37513191031538
H        -0.38747260904274    2.90751912645303    6.33979211213993
H        -1.54309702770442    0.08096288881635    6.58441100368347
H        -2.35740584632684   -0.26236764685836    5.05182438004084
N         1.50864421384513   -0.73012173629972   -1.14848651823627
N         1.07817412488514    1.68220243226460    0.35312978193295
O        -1.19323526110369    0.94605789318151   -1.87431278210599
C         0.69024259193704    2.75207296333250    1.09185475976091
C         0.51007031653044   -2.87451916505187   -1.79179942279149
C         1.52314111463464   -1.91538764379059   -1.80859471829538
C         2.66339924610033   -0.08927233203958   -1.46513627771702
C         2.28899304142156    1.99006693654243   -0.17764255500362
C        -1.03600657825969    0.20305800516578   -3.00274009351905
H        -2.09638207587900    0.80297020937236   -1.54564078172212
C         1.69033876266753    3.78385903762690    1.02033556466048
C         0.72878654338087   -4.11299470125782   -2.56818584070961
C         2.73790880649019   -2.03593046134281   -2.56730263046829
C         3.04601334960204    1.17634561448428   -1.02001331915792
C         3.45018546289136   -0.90655803091472   -2.34735373808024
C         2.68101790354817    3.31250658955727    0.22936431905983
C        -2.03624322736343   -0.63766834476384   -3.47743385413962
C         0.15427404197367    0.27322751071841   -3.71253087301224
H         1.62539299239805    4.74378376847648    1.49461203026463
C        -0.11186934896270   -4.43702650986291   -3.62879472604206
C         1.77680769274476   -4.97360752288140   -2.25420135117764
H         3.00110687111227   -2.86935187092169   -3.18911049947300
C         4.34092246962114    1.70754440908557   -1.50328576696878
H         4.41525883743688   -0.64667858045949   -2.73759865503874
H         3.58732030087947    3.80679680898388   -0.06283946617900
Cl       -3.53864218991367   -0.71968458429557   -2.60497266602909
C        -1.84231910595336   -1.40041199617031   -4.61329881270748
C         0.37193177832883   -0.49801994657231   -4.84192724131319
H         0.91776953199357    0.93807300763385   -3.34143742783950
C         0.09917032895847   -5.58740271934406   -4.36667239958061
H        -0.92413768874183   -3.77000614115211   -3.87449579454109
C         1.98159193459182   -6.12774909343177   -2.98847012642363
H         2.42334293663444   -4.73679332031440   -1.42160663525372
C         4.51316306447156    2.02695914888342   -2.84628771557237
C         5.40268663986400    1.89737879001273   -0.62508201407452
C        -0.63873427985280   -1.34897438569606   -5.30115415403797
H        -2.63857550537266   -2.04207938851530   -4.96082575947470
C         1.68320081136521   -0.42124499011702   -5.55886234545431
C         1.14662240784103   -6.43621839514876   -4.04942559843534
H        -0.55668140468275   -5.82401788118395   -5.19240161788412
H         2.79582858234831   -6.79006303705688   -2.73180160197008
C         5.72044187972621    2.52472719676890   -3.30114132568688
H         3.68826467655885    1.89300403610641   -3.53171603426917
C         6.61121693158468    2.39123622858554   -1.08176694522036
H         5.27750627295027    1.64789735725171    0.41839328950344
C        -0.42867526949534   -2.20604103076097   -6.51119586863013
H         2.15246585958082   -1.40312711596324   -5.59452470787049
H         1.54309823147784   -0.08096782383408   -6.58441231138474
H         2.35740618031017    0.26236450580775   -5.05182588323100
H         1.30987513679402   -7.33569291018285   -4.62476199070014
C         6.77345514230815    2.70644059216284   -2.42034778145809
H         5.84011349612300    2.77273868327346   -4.34599061928472
H         7.42979222761538    2.53061689429063   -0.39051129809769
H        -1.32652099737183   -2.77164051678568   -6.74487941364501
H        -0.16816131381852   -1.59630739699304   -7.37513104465971
H         0.38747491131860   -2.90752515777385   -6.33978801435739
H         7.71698873162075    3.09354125024294   -2.77592731494862

