77
CSD_code = HAMGEH | q = 0 | S = 0 | Stoichiometry = C44H28N4Zn | MND = 4
Zn        0.00000261233297   -0.00000335890078   -0.00000365286693
N        -1.50671464352187    0.41555436155490    1.28975623834977
N         1.04905981709030    1.57754412160937    0.72010947051432
C        -2.66421244580389   -0.28443218085241    1.43752457760717
C        -3.47529521653097    0.32374450560715    2.45480379682138
C        -2.78434257875718    1.39051285723109    2.91995918981601
C        -1.55525591077257    1.44466598060304    2.17858400352018
C        -0.56645464554113    2.40848321649658    2.37038152938390
C         0.64015185996555    2.45760763671557    1.67396816706859
C         1.62559200202930    3.48949857464871    1.83962842735149
C         2.63308175093871    3.20996313724058    0.98024200628513
C         2.26472410912158    2.00782001984377    0.28602691279997
C        -3.03608319182733   -1.41438963941516    0.71153728125975
C        -0.82170794650939    3.46309794108772    3.37670457209147
C        -1.85472562093520    4.37678821358882    3.19171735147315
C        -2.09224622512887    5.36512372483083    4.12959694262794
C        -1.30523196113716    5.44990522417432    5.26592399350609
C        -0.27647308835556    4.54309350004993    5.45851661076972
C        -0.03321709692533    3.55737409998996    4.51907857335931
C        -4.34059567724815   -2.03776948728892    1.03020430642338
C        -5.37379618254085   -2.02632950647260    0.09876295016332
C        -6.59300828484957   -2.60695080879033    0.39839483724031
C        -6.79205764110206   -3.21248688681440    1.62781037833095
C        -5.76684457802781   -3.23190025013683    2.55864227597861
C        -4.54929920670378   -2.64525020989546    2.26424709532442
H        -4.44321315956413   -0.02190556625191    2.76128235315865
H        -3.06889320029399    2.07499715439368    3.69500394986059
H         1.54195017657072    4.32073353062268    2.51216344060619
H         3.53450198455689    3.76680649088698    0.81366477955137
H        -2.46370087186540    4.31205021563590    2.30161475838702
H        -2.89425444385625    6.07181033021945    3.97329058571654
H        -1.49299318690565    6.22045990896717    5.99898986224157
H         0.33879713832958    4.60423402019503    6.34437489870542
H         0.76561565311115    2.84578205636241    4.67002462312923
H        -5.21676374413935   -1.55068896286592   -0.85855268053423
H        -7.39067116407088   -2.58727625315527   -0.32995743586490
H        -7.74334730362700   -3.66826265468017    1.85972309114576
H        -5.91630161376333   -3.70627519567805    3.51767531404648
H        -3.74646934764593   -2.66260768799996    2.98713357452271
N         1.50671727635723   -0.41555766867837   -1.28975789378569
N        -1.04905787553014   -1.57754729473000   -0.72010886103454
C         3.03611096260002    1.41434977966727   -0.71149854329474
C        -2.26470800675263   -2.00784454265318   -0.28600534133602
C         2.66423035213143    0.28440904397526   -1.43750409590015
C         1.55524242436339   -1.44464742199355   -2.17861132950115
C        -0.64016457701000   -2.45758811346701   -1.67399319195382
C         4.34064545171340    2.03770312334140   -1.03012547742643
C        -2.63306618941994   -3.20998242001755   -0.98022962364160
C         3.47530777335753   -0.32376159060773   -2.45479095747076
C         2.78433236111324   -1.39050106252687   -2.91998034627193
C         0.56642938048222   -2.40844671714893   -2.37042464694039
C        -1.62559550354050   -3.48948763113454   -1.83964881229898
C         5.37381667182813    2.02622941427019   -0.09865209828742
C         4.54940078292672    2.64519216676325   -2.26415505625738
H        -3.53447361103367   -3.76684223131108   -0.81363723052093
H         4.44323659984715    0.02187247226315   -2.76125295329487
H         3.06887212218917   -2.07496831986449   -3.69504339708423
C         0.82165670570020   -3.46303231264099   -3.37678259619513
H        -1.54196200945526   -4.32070735569953   -2.51220278963722
C         6.59305307716255    2.60682171963103   -0.39824095137200
H         5.21674182182555    1.55058611647720    0.85865517843476
C         5.76697060392677    3.23181329064170   -2.55850724943891
H         3.74659259014703    2.66258045752179   -2.98706481992066
C         1.85466997664292   -4.37673750740983   -3.19184673251860
C         0.03314166778364   -3.55726254336808   -4.51914334554991
C         6.79215553218798    3.21236321715635   -1.62764531404778
H         7.39069293832029    2.58712019084185    0.33013591080498
H         5.91646883604675    3.70619441566755   -3.51753083011993
C         2.09216572781927   -5.36504046468540   -4.12976745365350
H         2.46366187420199   -4.31203863037059   -2.30175205204619
C         0.27637292938130   -4.54294889775140   -5.45862264731492
H        -0.76569062420473   -2.84566026955331   -4.67004715531638
H         7.74346471057401    3.66811517026299   -1.85952512228476
C         1.30513035055581   -5.44977436121367   -5.26608384758839
H         2.89417239275080   -6.07173930619037   -3.97350238499795
H        -0.33891570941909   -4.60405308729838   -6.34447164672214
H         1.49287328633326   -6.22030300152301   -5.99918324408785

