56
CSD_code = HAMHAE | q = 0 | S = 0 | Stoichiometry = C24H25ClN2O3W | MND = 6
W         4.73946193598391   -0.10821560366794    4.62673702988470
Cl        6.51164777821733    1.05322535616574    3.50910267516973
O         2.86214195712966    2.30969557821777    5.19409879412156
O         2.93395859388331   -0.73484997453278    2.16886797684277
O        -9.06820697581967   -4.27979005408104    9.03763790843828
N         6.00811889301818   -2.04064249730387    4.46974440792730
N         6.03475645077884    0.12683796274279    6.48861843226306
C         3.63200453395788    1.49239485768410    4.93922809946366
C         3.67316099390078   -0.45516049767626    3.00698257739671
C         3.16036851961624   -0.88979499907565    5.36108685299427
C         1.86864217245877   -1.28515359980912    5.68096646024071
C         1.15842482251190   -0.68262299956604    6.74363240814627
C        -0.11611871374713   -1.08164776897473    7.05546405997844
C        -0.73885904738270   -2.10491434359222    6.32643099204907
C        -0.04630302624335   -2.70965220183951    5.26711083742246
C         1.22691350965191   -2.31196420839377    4.95125794626016
C        -2.03716226036680   -2.52819807486290    6.65025845998923
C        -3.15523458302820   -2.90591441475102    6.92048175687171
C        -4.45004096269731   -3.35492696756006    7.23126716246568
C        -5.19321935326405   -2.73467322374350    8.24415512265462
C        -6.45673496331383   -3.18637720734094    8.54516484183978
C        -7.01136132545501   -4.26469804307676    7.84766787715907
C        -6.26929777485593   -4.88064435855446    6.83640206378801
C        -5.00453395747288   -4.43376726804035    6.52972743635705
C        -8.35415294141320   -4.73834031536539    8.17969129860569
C         5.15997446784556   -3.23106705108367    4.34598729590909
C         6.92514714707239   -2.03798795289923    3.32626952177095
C         6.77442249922866   -2.12131372614749    5.72578873910127
C         7.19535440092743   -0.73474481566888    6.21771023147157
C         6.50863291173903    1.49902727886158    6.69526704888220
C         5.35537926670005   -0.29323521512497    7.71744648123884
H         1.63893464712585    0.10996110520671    7.29883029261835
H        -0.65397484826217   -0.61149030644447    7.86616524651244
H        -0.53135708039963   -3.49239819240759    4.70180159372084
H         1.75916027426678   -2.76953417509957    4.13009120587672
H        -4.76161122322244   -1.90225445874915    8.78018672115227
H        -7.04580408445089   -2.72161056476231    9.32190029883668
H        -6.69688451922268   -5.71332947868843    6.29556824749574
H        -4.42634727816158   -4.90666038200563    5.74935513659567
H        -8.69048712769844   -5.59446366326427    7.55871925089865
H         4.43122517176085   -3.26100781911796    5.15674064460767
H         4.61667304830232   -3.19181263742250    3.40225588914808
H         5.76325065729278   -4.14917265114441    4.36536890051387
H         7.50619536463114   -2.97011890126245    3.28710653090297
H         6.35227083045948   -1.93865554146426    2.40338436551218
H         7.60952797422799   -1.19326505658251    3.38465032976473
H         6.14884076623898   -2.60375255806351    6.48379238185290
H         7.67280885312659   -2.74386912727722    5.59346041487298
H         7.79472648702525   -0.24474689367914    5.44310031094505
H         7.81849307537928   -0.84407480930198    7.12105097898656
H         7.21930479607331    1.54951842057577    7.53103491591481
H         6.99584285608783    1.86143995439082    5.79000900787469
H         5.66042344647556    2.14886499632767    6.91293944565339
H         4.53457906303066    0.39313656479669    7.92326009280701
H         4.93206884739314   -1.29127925582480    7.61386396951036
H         6.04655503292493   -0.28200821963371    8.57241103069990

