83
CSD_code = HAMHEI | q = 1 | S = 0 | Stoichiometry = C44H32MnN4O2(1+) | MND = 6
Mn        4.69457934862399   10.26416708139544    0.00021321501524
O         2.86873812521493   11.09924822134014    0.94288582138935
N         3.98059348205682   10.71900489676579   -1.82493966783428
N         3.82500055294754    8.45559125706223   -0.10740308527216
C         4.19963289562219   11.87045511571485   -2.53216598712047
C         3.62038182611535   11.76536473357819   -3.83859501974328
C         3.04011031790848   10.54441574066511   -3.91359669238385
C         3.26311006643567    9.89973639213667   -2.65334962263875
C         2.83955827608977    8.60238209700036   -2.36097428245615
C         3.11815459361172    7.94485768655389   -1.16174530845719
C         2.67370938635711    6.61619308708380   -0.86107676016856
C         3.13786015078377    6.31680516862221    0.37504852999787
C         3.84750995645883    7.47020617101663    0.84287647500418
C         4.91474273122059   12.98416357825842   -2.08764071601898
C         2.06666301868239    7.87693043480576   -3.38964972285101
C         2.58051225166264    6.71948194961826   -3.96880159915704
C         1.85957592302022    6.04448702749247   -4.93662889633662
C         0.61463659317183    6.50867330618929   -5.32857066231004
C         0.09548565786893    7.65711645968669   -4.75391298030301
C         0.81849298295715    8.34235808241906   -3.79463201001958
C         5.01272024286544   14.15021063202015   -2.98875122452347
C         6.25035257455700   14.57614849712439   -3.46382461083667
C         6.33603987944666   15.66521982142410   -4.31170749672746
C         5.19087524887206   16.34852325770282   -4.68595691841418
C         3.95653437035751   15.93395847064724   -4.21360906999337
C         3.86529814673360   14.83797241272555   -3.37544763466256
H         3.67389042714712   12.52021759486238   -4.59692472069647
H         2.52664339112840   10.10609126431920   -4.74542446399519
H         2.08387215158912    6.00292149488935   -1.51199489047181
H         3.02149175538683    5.40262144426235    0.92123829965967
H         3.55562522157822    6.36455638233998   -3.66865969564617
H         2.27112497165012    5.15356107574064   -5.38606792214679
H         0.05133225239914    5.97776379911924   -6.08022350012724
H        -0.87569737461474    8.02084002878092   -5.05335015057256
H         0.41069096946627    9.23449157564121   -3.34142013179247
H         7.14332865198410   14.03836239688866   -3.17918529918938
H         7.30004142478064   15.98187042850770   -4.67999267548353
H         5.25996235527220   17.20092847180002   -5.34369624432481
H         3.06127524651634   16.46464284786301   -4.50005424932233
H         2.90355738319861   14.51876562112164   -3.00081379849302
H         2.22826092381099   11.52698569820807    0.35883068514434
H         2.37664488534057   10.52891005564559    1.54842934402879
O         6.52083733403352    9.42929916500343   -0.94234438344449
N         5.40969300194452    9.80887099542972    1.82479956966799
N         5.56524021183690   12.07225974364411    0.10727530127916
C         4.47559612786514    7.54367886398590    2.08748136069491
C         5.54284965105178   13.05761693944579   -0.84305129473939
H         7.16134952099949    9.00109449103650   -0.35874886766574
H         7.01300886639114    9.99917539298020   -1.54837501440673
C         5.19074399404317    8.65737408938086    2.53199137160389
C         6.12689383417558   10.62826003297316    2.65333628851216
C         6.27183235366673   12.58312770556779    1.16173693262946
C         4.37749430905192    6.37769886573306    2.98866294282184
C         6.25231000297752   14.21110525303027   -0.37513410970010
C         5.76979460935602    8.76255184112090    3.83850790861348
C         6.34981600745984    9.98360995477170    3.91361458164025
C         6.55029173542457   11.92567497076285    2.36103254088759
C         6.71620984251248   13.91182763195843    0.86110475328964
C         3.13981886949995    5.95184629866735    3.46370768342394
C         5.52486195379438    5.68989692613583    3.37543775302868
H         6.36867398416222   15.12529601586984   -0.92131863743365
H         5.71626377038942    8.00770375050889    4.59684860047259
H         6.86301710684876   10.42204488915120    4.74554885259984
C         7.32320323665497   12.65112447089883    3.38970159101221
H         7.30580023771985   14.52521610171947    1.51214057569708
C         3.05404272371211    4.86281102616389    4.31163064544407
H         2.24687619927106    6.48965094903887    3.17899429871774
C         5.43353749481181    4.59395077709673    4.21363731292698
H         6.48662800369064    6.00902729151311    3.00081154521663
C         6.80939605662450   13.80858649352676    3.96887116435775
C         8.57137584295327   12.18567540840341    3.79464544624720
C         4.19915913590842    4.17946659022928    4.68595383272816
H         2.09001036558708    4.54621391498230    4.67988264714949
H         6.32875782481494    4.06322805704709    4.50012814017989
C         7.53038041794325   14.48356091681160    4.93668120120138
H         5.83428727817102   14.16354261425022    3.66875362492196
C         9.29442729037100   12.87089206469497    4.75390824015036
H         8.97913970358863   11.29352729150311    3.34142758868913
H         4.13000649285793    3.32709074850368    5.34372380961022
C         8.77532132198661   14.01934493219905    5.32858437497962
H         7.11887210557802   15.37450045916431    5.38613132263314
H        10.26560732190977   12.50713913176113    5.05331910574103
H         9.33866062208535   14.55023518429486    6.08022473886938

