35
CSD_code = HAMHEL | q = 0 | S = 0 | Stoichiometry = C13H12MoN2O7 | MND = 6
C         1.46344342430260    6.66382263789008    6.04680598738859
H         1.89777913036925    7.62665308049223    6.33601528695464
H         1.56473994676834    5.96003060782612    6.87075356796646
H         0.40308710877239    6.79710377946276    5.81178242146134
C         2.15132549389727    6.72879498789582    3.77457181688174
C         1.59258570211564    7.96779050149798    3.51848667131798
H         1.09806981847638    8.51888863712299    4.30229083605749
C         1.66247291805143    8.52448454780331    2.24048296826495
H         1.22199525236870    9.49415198948649    2.06849461369540
C         2.27619094315642    7.85384594642673    1.21402781119727
H         2.32359142627255    8.28359594723919    0.22557153433141
C         2.84200269377092    6.58347515681308    1.43243876011948
C         2.78765192841780    6.01712687380160    2.72289590336386
C         3.45338356238932    5.86498285650901    0.36027710587416
H         3.51246127002179    6.33948065290919   -0.61905807443427
C         4.73049204529581    2.84755046476742   -0.42186618860259
C         5.25211668858426    2.01879955275605   -1.48859819018402
C         5.92760158496500    1.51191192882685   -3.47446484940406
H         6.15261478521901    1.72781543572722   -4.50083560316496
C         6.03086872454916    0.35886088623834   -2.74759017598261
H         6.37461924939770   -0.59351252178108   -3.09477443870134
C         5.59121794570442    0.68382433371706   -1.45090391395506
H         5.51946088321214    0.04580433325662   -0.59334579912976
N         3.91309252838706    4.66116812109458    0.47744921756343
N         4.42955326102984    4.09546946849759   -0.63933451250981
O         2.16090443101578    6.08593112084037    4.96872186339143
O         3.33064181815291    4.84277472839910    2.97710025290994
O         6.07808940439045    4.12015294428482    2.52885693336491
O         4.57606052987147    2.31126527412120    0.75063562617391
O         5.45947301832523    2.51338556404806   -2.72619575216455
O         2.02785312863940    2.88150861221018    1.59269729307140
O         4.20174755483071    2.36527446222338    3.31622542278629
Mo        3.55160169969815    3.25403487760655    2.09170644310806
H         5.96854559084692    4.71402630933894    3.28068878733805
H         6.10426450873386    3.22852590065215    2.90879037365005

