59
CSD_code = HAMHOV | q = 0 | S = 0 | Stoichiometry = C24H22MoN4O8 | MND = 6
Mo        2.31773810877273   11.65086372523095    6.36287744612103
O         2.72050787966080    7.04436827710905   10.97332553627212
O         2.09134986052460   10.16638790415151    7.42090282371097
O         3.07326304367784   12.64550592744435    4.84646151944018
O         5.92873792055739   16.16581254432381   -0.29022285169621
O         7.50318811788277   14.71307641563637   -0.44361843553618
O         3.12025751148722   12.49634961535058    7.50607441857579
O         0.77012195374237   12.52154836076653    6.04421903446758
O         1.37158220335612   10.68547786226299    5.00914727803336
N         4.07818948125741   10.60667813854421    5.80800516446849
N         4.76302682613849   11.14758915159921    4.77298870569021
N         6.48877816343312   15.14862279483318    0.05663712002472
N        -0.90560857007836   11.03954018216286    5.31894373574315
C         2.37742659108501    6.54007760491433   13.75743798132455
H         3.26636059200938    7.11533966221082   13.54777933765246
C         2.27517914326219    5.81237750164300   14.92888858096788
H         3.08711500180249    5.82313895592120   15.64068436478512
C         1.13255035978971    5.07504710876290   15.19128986756797
H         1.05112406968269    4.50991807533454   16.10769963453602
C         0.09567675538666    5.06299503432881   14.27464044027596
H        -0.79616291992167    4.48757242164972   14.47343124275365
C         0.20081915299925    5.78351881217004   13.09724519794828
H        -0.60886823044052    5.76723186337122   12.38186317289105
C         1.34037054797252    6.52956016756994   12.83323953459728
C         1.46181940168202    7.33338715354236   11.56514879477711
H         0.65087424450502    7.07824544969848   10.87136625051234
H         1.40165097326605    8.40652960787958   11.79883791149637
C         3.09805706080670    7.69974850335741    9.86781294209919
C         2.33066271912715    8.64713253829398    9.20112838974638
H         1.34065126213810    8.92103087408928    9.53258745508226
C         2.82556009882390    9.29612608923542    8.06685913271886
C         4.12589551685617    8.97868746667466    7.58047991605647
C         4.86768245986928    7.99237949766233    8.26020279457971
H         5.85048997907467    7.73961253171672    7.89233134914792
C         4.37699199595237    7.37066585907488    9.37364922281851
H         4.94638120860914    6.62382437444806    9.90207359911731
C         4.66145121142454    9.63233685057180    6.44066264453807
H         5.64003760778031    9.31905272793266    6.07649148821305
C         4.17668556568108   12.21989585046204    4.32716155728822
C         4.79108750907683   12.96840593647904    3.21995354886846
C         4.19271486024866   14.15550217000157    2.79168898052524
H         3.29657142020046   14.49496036865118    3.29010572707211
C         4.74801851080455   14.87470100062732    1.75388434737749
H         4.30742361034847   15.79582494108465    1.40341241276788
C         5.90499441992686   14.40068979031972    1.14489926747905
C         6.51195936670587   13.21998004715171    1.56294844981130
H         7.40972930558552   12.88716877803666    1.06433596817863
C         5.95395244073784   12.50468729127287    2.60128282455988
H         6.39603363948436   11.58704406806220    2.95174131448649
C         0.38865441946848   11.60889349859793    5.03957822664529
H         0.32468386532402   12.17068594535524    4.07699343708366
C        -1.93715450296934   12.06258585810579    5.37291420006467
H        -1.94633733816137   12.60033990523839    4.42636509344485
H        -1.77300070351869   12.77903997828840    6.18820873550515
H        -2.89840730173918   11.57041905939075    5.50953088194855
C        -0.88640423756666   10.22223110872008    6.52014082822762
H        -1.87625437015092    9.78751645041848    6.65014621820939
H        -0.62440494781100   10.80613901660991    7.42342988385128
H        -0.16007483563264    9.41993130565648    6.37710535508137

