75
CSD_code = HAMJOU | q = 0 | S = 0 | Stoichiometry = C44H26N4Zn | MND = 4
Zn        3.82190296766305    8.11949953700666    6.64317770930825
N         5.38758278059800    8.94818377461860    5.65820171475388
N         3.89177158226440    9.61317773269743    8.01142705282739
C         5.75084795650814   10.91649714246618    7.07829920275303
C         5.63748006088313    7.30095017395528    3.85724953701410
C         5.99223179144212    8.46306691201870    4.53978832848351
C         7.05955050700094    9.33889361917137    4.14397207263506
C         7.09394198021257   10.34649739545834    5.04684704856165
C         6.03796074283672   10.09711994320354    5.98784534324317
C         4.73795752438098   10.67871219739399    8.00594743520524
C         4.40994428502141   11.56735781220791    9.08563629849141
C         3.36299730210683   11.01560447693659    9.74212704792914
C         3.04920504334158    9.78802064922056    9.06554088112251
C         6.57436765225904   12.13247628959123    7.26085572278436
C         6.53125407549755   13.16210889353326    6.32592726502473
C         7.29894389033896   14.29917550562031    6.50112280891873
C         8.12298990100700   14.41915012724403    7.60790299837186
C         8.17305479770197   13.39771010868952    8.54189895094939
C         7.40136292862241   12.26255266849397    8.37233457240769
C         6.43574773812997    6.93398246634364    2.66336741441831
C         5.84467829859798    6.92648596235487    1.40467609808636
C         6.59230311790268    6.58472449335573    0.28048460881483
C         7.90154632027050    6.25618731905359    0.47351333602368
C         8.53007535506526    6.24181314895025    1.68351065842119
C         7.77714943727999    6.59351641233849    2.80094268784354
H         7.68803332650057    9.19985331804089    3.28609472114862
H         7.76994246071372   11.17827182650567    5.08184990586666
H         4.90627919896304   12.49471908371183    9.29499276981238
H         2.83708439478040   11.40509535354033   10.59187384785823
H         5.88333402244365   13.06872660875914    5.46615865830342
H         7.25400286357642   15.09470768396504    5.77140707523082
H         8.72403765738095   15.30627896912458    7.74244947370783
H         8.81562024085231   13.48607989949788    9.40607682857007
H         7.44180251651000   11.46235002989589    9.09737441504197
H         4.80369421921296    7.19731468548710    1.29738631827376
H         6.13709026239507    6.58515109946939   -0.69847178607377
H         9.56961825487567    5.97030768422602    1.78945708250683
H         8.23369898814225    6.59103883285876    3.78071575403763
N         2.25622121144499    7.29081845624824    7.62815428216770
N         3.75203428573533    6.62582275713275    5.27492993899151
C         4.59459060583170    6.45098887279227    4.22080709739248
C         2.00630399714964    8.93806822540292    9.42908832728107
C         1.65155933508307    7.77594418867372    8.74655696976437
C         1.60585275966397    6.14187330466656    7.29851855059989
C         2.90586019667951    5.56028090123253    5.28041961448092
C         4.28080415390937    5.22340202190894    3.54422456358065
C         1.20801450415286    9.30505580403117   10.62295246209080
C         0.58424228473005    6.90011538445125    9.14237419818711
C         1.89297734824860    5.32248862228611    6.20807515350362
C         0.54986711170193    5.89249925289136    8.23951215881704
C         3.23387191158290    4.67163685305594    4.20072852730945
H         4.80671309729769    4.83391607202976    2.69447282309413
C         1.79906284067607    9.31256687294985   11.88165339091072
C        -0.13338213664355    9.64552947401967   10.48534839807771
H        -0.04424810561593    7.03916003933690   10.00024545421097
C         1.06948335168113    4.10648901244084    6.02554057894949
H        -0.12612743317019    5.06072082708032    8.20451247159721
H         2.73754328271901    3.74427008830871    3.99137682421213
C         1.05141364377784    9.65435254473539   13.00583149139753
H         2.84004859405598    9.04173533602160   11.98894959347647
C        -0.88632712397340    9.99725367609153   11.60277197109902
H        -0.58990340702493    9.64799029048756    9.50555891398817
C         1.11262904636854    3.07686588331221    6.96047851475189
C         0.24248182235792    3.97638280652527    4.91407061915887
C        -0.25785912331603    9.98291250168348   12.81283382848271
H         1.50663013603741    9.65393512564181   13.98478564579415
H        -1.92586550856780   10.26875675219079   11.49678188418711
C         0.34496442930760    1.93977952261401    6.78530001027243
H         1.76055509823706    3.17027080103044    7.82024027504591
C        -0.52918520412532    2.84120599633410    4.74452320521104
H         0.20201795371082    4.77657714952253    4.18902308924839
C        -0.47908875055902    1.81977540495252    5.67852813079248
H         0.38993078213076    1.14425445786383    7.51502211201425
H        -1.17175622326614    2.75281359371849    3.88035162945690
H        -1.08011721129056    0.93263128932669    5.54399544172624

