101
CSD_code = HAMJAG | q = 0 | S = 0 | Stoichiometry = C52H42N4O2Zn | MND = 5
Zn        4.51586142207541    3.85372438436144    0.69208858723628
N         2.55614648798967    3.45961771336630    1.00172140137600
N         4.96715247966791    3.06165680240338    2.51267018910941
N         6.43768078529647    4.55451084902813    0.55372873271479
N         4.02657374527972    4.99000876873426   -0.93276071707784
C         1.52241884367661    3.80516029334518    0.19549976584082
C         0.29143377150385    3.27950749107945    0.72486443988858
C         0.61093733705462    2.60423792920208    1.85214637431476
C         2.03599427274209    2.72392786199544    2.01426562067682
C         2.74189528457988    2.21519971882041    3.10385225492700
C         4.10395862484720    2.40895142482213    3.33135501181662
C         4.79743032672213    1.94404010564928    4.50266880621633
C         6.08146132279082    2.35042755630932    4.38057009784100
C         6.18110165449357    3.03446600622112    3.11813422906032
C         7.36008325321842    3.58298048907933    2.61264542142619
C         7.46225041446465    4.25074169523622    1.38910182934488
C         8.70540937478564    4.68652188335455    0.81324523875880
C         8.40404133967303    5.26633647124379   -0.37358771399761
C         6.97492653012924    5.19733059603422   -0.51443902374418
C         6.26839148550253    5.71994481742905   -1.60074042794392
C         4.88616140427232    5.62657611183223   -1.76669799995504
C         4.16104582787150    6.21734940299580   -2.86035428695759
C         2.85825997572012    5.90442172936995   -2.67519525902882
C         2.78650814564967    5.13287009861226   -1.46292248357002
C         1.60711963435821    4.58915524127515   -0.95442194928307
C         1.97633697257905    1.44125535992322    4.10713060587666
C         1.43185672036529    0.20552155270066    3.77209668627737
C         0.71473054199208   -0.52112815717075    4.70523655655236
C         0.52688382478093   -0.02006245359349    5.98254096918939
C         1.06068492570673    1.21176581137805    6.32248522025262
C         1.78248479897766    1.93769534651450    5.39227658626060
C         8.58860677873446    3.46354807367890    3.42537669957345
C         9.09162520389699    2.22103373149899    3.80231363652322
C        10.24673535080870    2.12777763140788    4.55726823051260
C        10.91563391533823    3.27382244730970    4.95323692215350
C        10.42033694705749    4.51530229561182    4.59023680196792
C         9.26832203681443    4.60996982083400    3.83144705807582
C         7.03822656775029    6.44105224206018   -2.63782035967922
C         7.75975917103051    7.58576211633169   -2.30943624390553
C         8.48098076369912    8.26418575560798   -3.27458844507347
C         8.49691628963840    7.80769507442829   -4.58208952258078
C         7.78044307892718    6.67206214008701   -4.92003693052346
C         7.05372854120209    5.99569464139727   -3.95707840376254
C         0.35286060300472    4.86063760764759   -1.69136979095447
C        -0.15346860367126    6.15424447591282   -1.77137539131268
C        -1.32946788998709    6.40589110531304   -2.45455932277861
C        -2.01173968338639    5.37040372327813   -3.07120224189147
C        -1.51304170404560    4.08041380545772   -2.99919619264921
C        -0.34013676132876    3.82578633453541   -2.31181668807476
H        -0.68081419451262    3.42613760400302    0.29563896968996
H        -0.04798449490695    2.08963691783657    2.52460309371313
H         4.35486083104495    1.38807725488074    5.30633851213442
H         6.88250140163106    2.21306532505220    5.08053149108585
H         9.67749942886186    4.54932276381066    1.24823069229652
H         9.08072554381016    5.69252443689417   -1.09000049644520
H         4.59276695449555    6.80110914596764   -3.65021018268061
H         2.02295119195763    6.16102608364178   -3.29756013437693
H         1.58152881654881   -0.18314417254134    2.77508224970563
H         0.29984612376588   -1.48165349879199    4.43516421093680
H        -0.03518717915858   -0.58691242402350    6.71025234220386
H         0.91280937319466    1.60910079464832    7.31636616403418
H         2.19335481364612    2.90235392964149    5.65324114138071
H         8.57484944430204    1.32540796498861    3.49173615967228
H        10.62725112182247    1.15605613069650    4.83799830122354
H        11.81683590966170    3.19987826976328    5.54397881985028
H        10.93335497086217    5.41380959461281    4.90153639258944
H         8.87713851789641    5.57890286798970    3.55684030734551
H         7.73892442453149    7.94694289292935   -1.29150867563989
H         9.03148082848810    9.15431403017987   -3.00639380583778
H         9.06211360549287    8.33677237326289   -5.33514126220939
H         7.78617548018676    6.31197274549748   -5.93882565808411
H         6.49182104617614    5.11229844567480   -4.22676115739720
H         0.37758778425419    6.95964696684689   -1.28482391773478
H        -1.71602287178381    7.41361164122512   -2.50551521901942
H        -2.92936888586246    5.56806898400176   -3.60570956118878
H        -2.04089582841280    3.26950902754564   -3.48035222450847
H         0.05348182729656    2.82103436693728   -2.25703104055209
O         4.87433326691109    2.22964085774170   -0.67635734505243
C         5.95317765090996    1.83842863928244   -1.06288197657549
O         6.90652338777458    1.55053753353993   -0.19566828683263
C        10.41306570138922    0.26873207262930    0.20077574832188
C        11.22231600771475    0.05680568783836    1.47466966967551
C         7.61996722223070    2.38964970410440   -2.79472831522886
C         6.30031456820970    1.65903985142712   -2.51780916865534
C         9.07157878673503    0.92552521396430    0.51338918262982
C         8.70340125047153    1.99876986898181   -1.77604963564104
C         8.15337077455000    1.06008293945119   -0.69921105026780
H         7.43494125974154    3.46211982971127   -2.73206289618458
H         7.94688475249146    2.16618591978519   -3.81075401521884
H         9.23185407679402    1.91716715868531    0.93742297806715
H         8.54140270960695    0.32926282827104    1.25804608856466
H        10.24498838276242   -0.69350600061253   -0.28897147613272
H        10.98274703319830    0.89876661182611   -0.48389978828516
H        11.38986192153390    1.00563124582505    1.97869308958500
H        12.18675984465811   -0.38921376978409    1.24498884068876
H        10.69257813260808   -0.60283308785159    2.15759882585934
H         5.49048148656874    2.06088693027777   -3.12513459021845
H         6.40434594468344    0.59255837237032   -2.73436032318361
H         9.08503488005115    2.89444654932237   -1.28402698383566
H         9.53582978070284    1.49968760496163   -2.27075768397531
H         7.97781305816660    0.06426105112860   -1.13393097930433

