46
CSD_code = HAMKUC | q = 0 | S = 0 | Stoichiometry = C18H19N2O6V | MND = 5
V         3.16396209321483    3.96015434377550    0.69415244827690
N         4.34553338155667    5.50476217370648    0.75810229805630
N         4.05809055981021    6.47732393353630   -0.15855846728193
H         4.57126150189731    7.35893714510908   -0.04240437910678
O         4.31582764407900    3.24207972918544    1.70509701663242
O         5.75125667002209    7.04662971290886    1.61874676014071
O         2.60961754540999    5.02576216469762   -0.94542567667034
O         4.30302191599671    8.73991861512496   -1.47845016885213
O         2.04111553792404    4.42751045653277    1.62128060348028
O         2.76326457815003    2.64238267558124   -0.15997805318594
C         5.06986886199112    3.63294526783714    2.70186248923354
C         5.57533732083525    4.94942198864395    2.74284649611162
C         6.41029031922274    5.33576730093396    3.78902483938248
H         6.78367565837691    6.34934656670001    3.78360628033255
C         6.74008174701013    4.45212081721934    4.79538229225207
H         7.38274792889993    4.76401988571360    5.60420815057784
C         6.23854334574917    3.15699310404819    4.76198281201051
H         6.49146763578308    2.46095846284618    5.54841418787779
C         5.42070077488049    2.74642024235450    3.72965599651523
H         5.02602248377153    1.74081952544657    3.69312474828344
C         5.25093074207293    5.92171541960556    1.68484191808680
C         3.10415108724855    6.18514964011059   -1.02050043309153
C         2.63880057940216    7.14822439800790   -2.02769023129895
C         3.23019412296919    8.41072419455230   -2.24231810743363
C         2.69627088237748    9.24441672903630   -3.22016444660084
H         3.13163615905151   10.21358076359106   -3.40332144716863
C         1.60230882235742    8.84883782783889   -3.96967364564391
H         1.20821142550076    9.51803931782635   -4.71949980492275
C         1.01707332347150    7.61140560533371   -3.76208611446150
H         0.16289090256345    7.30632642350902   -4.34546360536357
C         1.53751370507311    6.77327479397846   -2.79795415690429
H         1.10256622557030    5.80404610733321   -2.60544803309722
C         4.92455320542627    9.99645570008231   -1.64876037636185
H         5.73301390752928   10.01585425992787   -0.91981042786773
H         4.23135443062985   10.81665908488255   -1.44307912059595
H         5.33917263675865   10.10487788889140   -2.65494603061219
C         0.49314469201995    2.47629031784177   -0.77581981348893
H         0.67036104731047    2.92840991698356   -1.74978162303621
H         0.29275996239883    3.26855842291301   -0.05099732272374
H        -0.35489415320780    1.79983609024031   -0.83869418269010
C         1.75083796952040    1.72787761176031   -0.31714981977985
H         2.04423817465051    0.97860153817592   -1.07650214975846
C         1.51313509364382    1.04297695372643    1.03507642838117
H         2.41732197837887    0.51927650706508    1.34382394806153
H         0.69063418405449    0.33556780578603    0.97022214497597
H         1.28703138864519    1.81944256910083    1.77092577933194

