77
CSD_code = HAMKAH | q = 0 | S = 0 | Stoichiometry = C44H28N4Zn | MND = 4
Zn       -0.00000416322780   -0.00000439315259    0.00000726350849
N         0.83844488554764   -1.55117224554579   -0.99892978325609
N        -1.13094589474073    0.43539185922856   -1.62476416548126
C        -0.31974329469437   -1.30810332129883   -3.14948591346922
C         2.38446950382556   -2.34770433189987    0.73328427234781
C         1.81327975435036   -2.38097485775214   -0.53789783618131
C         2.21120372659754   -3.28975349710314   -1.57659006860302
C         1.45489605579714   -2.99997945806057   -2.66083461386703
C         0.59367256513943   -1.91284710323503   -2.28764359516788
C        -1.11511404776614   -0.21132269750827   -2.82192012354718
C        -2.06212750050625    0.39467715642866   -3.71562586553771
C        -2.63580856459459    1.41878661437233   -3.04203408532053
C        -2.05187025609316    1.43162492236724   -1.72988251752915
C        -0.44724942150087   -1.86689282186178   -4.51406166492459
C        -0.94724266034445   -3.15108919616924   -4.70536930029994
C        -1.07078302809525   -3.67177863314009   -5.98080494020208
C        -0.69033583501328   -2.91954220518927   -7.07955289519203
C        -0.18708398415209   -1.64227021495467   -6.89715788169817
C        -0.06854223361287   -1.11699108375688   -5.62315024241452
C         3.42683777100382   -3.35194864675231    1.04136960953906
C         4.73847343362356   -2.95633313251489    1.28461593537624
C         5.71287224767975   -3.89678419417508    1.56580695383188
C         5.38864946483742   -5.24235414944737    1.61342651060855
C         4.08484697382962   -5.64399713030620    1.37541828646756
C         3.10993332861863   -4.70594062157656    1.08791795918251
H         2.97834464527734   -4.03379345759371   -1.48618986275294
H         1.48333170462635   -3.46126484334356   -3.62868780795505
H        -2.26003464648186    0.07106573434735   -4.71877933800017
H        -3.37840682792258    2.10735144365309   -3.39505929878351
H        -1.24734192535681   -3.73441381426271   -3.84684557046441
H        -1.46537724411714   -4.66807220328090   -6.11801451971008
H        -0.78537503524546   -3.32760593142520   -8.07497888459227
H         0.11428506133744   -1.05283214779923   -7.75090012335569
H         0.32881933709662   -0.12277326245419   -5.47807377005260
H         4.99033273987013   -1.90653505282154    1.24093783776356
H         6.72911996242340   -3.57865075819296    1.74794325506461
H         6.14985393321696   -5.97579151940677    1.83488737418541
H         3.82652955479879   -6.69231642399523    1.41342046110007
H         2.09119482157447   -5.01656462181775    0.90604134812969
N        -0.83844435933876    1.55117218390214    0.99893114203223
N         1.13094911539255   -0.43539214911039    1.62476914605581
C         2.05182180574654   -1.43167059323014    1.72991139790792
C        -2.38456222380127    2.34762161341707   -0.73323611709813
C        -1.81333091257503    2.38092970158107    0.53792632284616
C        -0.59361508658069    1.91289336217981    2.28762042037162
C         1.11517267792587    0.21137135587976    2.82189944326622
C         2.63577507772690   -1.41881805173742    3.04205620385213
C        -3.42701893241273    3.35178467766030   -1.04128637160653
C        -2.21123560224476    3.28971981147004    1.57661590459836
C         0.31984326537774    1.30818750669320    3.14944397341405
C        -1.45485223090435    3.00001005234009    2.66082468276236
C         2.06216975366606   -0.39464305130103    3.71561239039711
H         3.37833644516786   -2.10741347515509    3.39509963387944
C        -4.73862698653820    2.95605467760699   -1.28449695888142
C        -3.11023525798621    4.70580455801589   -1.08783716759458
H        -2.97841088528912    4.03372715187450    1.48623762034053
C         0.44743123417567    1.86705739317109    4.51397852134974
H        -1.48324892647959    3.46132461354429    3.62866540624869
H         2.26011448096879   -0.07100120471450    4.71874868749355
C        -5.71311806435789    3.89642113204540   -1.56565057568904
H        -4.99039099040687    1.90623358409278   -1.24082213517180
C        -4.08524124417058    5.64377657713461   -1.37530036844077
H        -2.09151800942283    5.01651734030655   -0.90599340063429
C         0.94745954721875    3.15125752592409    4.70516948893731
C         0.06877364822368    1.11723894579582    5.62314006226199
C        -5.38901601792638    5.24202021060060   -1.61326908243445
H        -6.72934332427398    3.57819910499420   -1.74775738760488
H        -3.82701789470467    6.69211902513817   -1.41330277114929
C         1.07108731152155    3.67203097317339    5.98056227570552
H         1.24751581368000    3.73451926064981    3.84658797030033
C         0.18740433584549    1.64260136994207    6.89710525229410
H        -0.32861896832986    0.12302027410546    5.47815447607982
H        -6.15029275193265    5.97539213805859   -1.83469825242919
C         0.69069368298233    2.91987527325616    7.07938401650042
H         1.46570962634660    4.66832602101167    6.11768096147888
H        -0.11392632570045    1.05322785798275    7.75090572165019
H         0.78580226580389    3.32800349309721    8.07477706796253

