77
CSD_code = HAMKOV | q = 0 | S = 0 | Stoichiometry = C44H28N4Zn | MND = 4
Zn       10.08794574009941    1.66474654860924    4.87132924182133
N        11.07683408943458    0.21502499987359    3.85886753177355
N         8.51187170704200    1.47049412123525    3.61255265683568
N         9.10122376935366    3.11925799790687    5.88122298026875
N        11.66062541737329    1.85539968410552    6.13468133287237
C        12.31987980888068   -0.26514148237325    4.13422274542200
C        12.68488462488417   -1.25781976070642    3.16239254597858
C        11.63637908065369   -1.38042596620538    2.31547892893216
C        10.63447637865666   -0.45144038579956    2.75801100340219
C         8.40283303627243    0.59153026734603    2.57947182684102
C         7.12255791347377    0.74056834281347    1.94592836721496
C         6.46573175175641    1.71588092185666    2.61593874994954
C         7.34924042618487    2.17641211557703    3.65061673057745
C         7.88276655522915    3.63799924372426    5.56889551618846
C         7.58599325735545    4.74201715472979    6.43833781483127
C         8.63386593938812    4.86508086000201    7.28604791758882
C         9.57345976381906    3.83657533770502    6.93669275651303
C        11.73928016978283    2.68247931449381    7.21227757900837
C        12.95426806959997    2.42749011073661    7.93440180019932
C        13.60958703721248    1.45066657426727    7.26495453367606
C        12.79676445067088    1.10665825263535    6.13195160026857
C         9.38632848020482   -0.30072135391678    2.15668826635883
C         7.04122409861030    3.19772108656200    4.54812330278399
C        10.78944769452500    3.63183488293894    7.58741824699542
C        13.13289162463070    0.12996476463013    5.19548355586576
C         9.08298554299406   -1.15038562352303    0.98242226443870
C         8.10864915376061   -2.14016325393166    1.06061172721613
C         7.82824098174818   -2.93461073117608   -0.03648026846446
C         8.51271343421926   -2.74615838769865   -1.22552040052625
C         9.48241551740073   -1.76119750067694   -1.31181968460810
C         9.76869282504424   -0.96943428836227   -0.21436718737833
C         5.73067962850123    3.86894742731959    4.40452703622577
C         5.43004704031484    4.59767487948823    3.25782909565895
C         4.20492841046553    5.22649380615741    3.12873165847309
C         3.26327721492979    5.13119707373463    4.13976753009047
C         3.55396899881195    4.40643506105776    5.28351874489211
C         4.78052310175146    3.78161729870711    5.41747353834239
C        11.09516949389666    4.48286089361338    8.75759565300238
C        10.29783009791174    4.43237410885830    9.89706411993997
C        10.58834493731852    5.22681570282118   10.99128841203332
C        11.67421329976958    6.08580256161891   10.95955191056383
C        12.47102174071013    6.14452515575961    9.82832762343238
C        12.18624238726546    5.34659968614588    8.73524900930395
C        14.44255192654328   -0.54117698841572    5.34740967721367
C        14.51090782483656   -1.90389594920214    5.62073293991293
C        15.73625024726843   -2.52810669653235    5.76823825685328
C        16.90798352879030   -1.80118931681000    5.63930037591776
C        16.84870803484004   -0.44502705476699    5.36502840970913
C        15.62447434686283    0.18263925165942    5.22291809139724
H        13.62056491186851   -1.78120231840118    3.13473739497229
H        11.54068329578734   -2.03731977556147    1.47309096410040
H         6.78204537298098    0.17501239081530    1.10066985109744
H         5.47628845762191    2.08870712844134    2.43658359024116
H         6.70193052725454    5.34722727565829    6.38883465695193
H         8.77289758752646    5.59114432984389    8.06305630136276
H        13.24924593145945    2.91907323652906    8.84082505615968
H        14.54484092591532    0.99022662513454    7.51708284231134
H         7.57874640601717   -2.28788821419304    1.99050944778990
H         7.07268266907534   -3.70330988590560    0.03651293739151
H         8.29141944002334   -3.36530738034303   -2.08232947140072
H        10.01731082431496   -1.60874356469185   -2.23797490308700
H        10.52168520078170   -0.19732657886172   -0.28040192899407
H         6.16843713209628    4.67645992293540    2.47297743624193
H         3.98402885152741    5.79326471210087    2.23591321686939
H         2.30606772796320    5.62065248023958    4.03687569194610
H         2.82222254859100    4.32785171576059    6.07440985418888
H         5.00759003643403    3.21144228196064    6.30670199974976
H         9.45509137706710    3.75672029362706    9.92272573988734
H         9.96559065791407    5.17523512033316   11.87259206481014
H        11.89885763136467    6.70742554053026   11.81367232694136
H        13.31757980877187    6.81501306412347    9.79750428756787
H        12.80289512529988    5.39556053864984    7.84940868981952
H        13.59550289419619   -2.46780131777604    5.72774242681262
H        15.77713791675074   -3.58565485610033    5.98515557823223
H        17.86432464569623   -2.28999835981094    5.75278360645535
H        17.75999112985667    0.12600939647802    5.26189509207822
H        15.57606036479424    1.23963544989160    5.00425918369493

