77
CSD_code = HAMLEM | q = 0 | S = 0 | Stoichiometry = C44H28N4Zn | MND = 4
Zn       -0.00022171213815   -0.00006285323858    0.00006106938828
N        -0.22391289821087    1.84584423064195    0.80557669145577
N         0.64652880632114   -0.70190649009898    1.78840574718364
C        -0.70162713022016    2.95310533253719    0.17538436216331
C        -0.80449642358942    4.03936640007073    1.10950648022204
C        -0.37211331699884    3.57095868915359    2.30327230497346
C        -0.00443459049420    2.19719568985630    2.10166843659184
C         0.46558616598618    1.35779534221224    3.11037268988261
C         0.76289145613722    0.00606969483125    2.94463315554865
C         1.25769332245129   -0.84582719975236    3.98982929497720
C         1.42409769086084   -2.07445304725836    3.44732572437596
C         1.04634181283271   -1.97277224827034    2.06533246187105
C        -1.07925030597037    3.03545702039788   -1.16394540652620
C         0.65069504523835    1.94274169211343    4.45716834932626
C         1.60893435694524    2.92817679488888    4.67271892943597
C         1.78310023863566    3.47205296963805    5.93249265081089
C         0.99841555229877    3.04383212531896    6.99020837767224
C         0.03918468812183    2.06664504863132    6.78284708638698
C        -0.13247180195832    1.51670366439374    5.52546171690467
C        -1.55733282624251    4.34521417014852   -1.66000846742023
C        -2.87471449662620    4.50540005487940   -2.07810139123925
C        -3.31986462628160    5.73251739270471   -2.53539878608790
C        -2.45426987717536    6.81240612728335   -2.58627938508375
C        -1.14069130248066    6.66036537887777   -2.17469740073808
C        -0.69485767598889    5.43590232638337   -1.71123072578837
H        -1.17548135477600    5.01892308231205    0.87900815024801
H        -0.32021246879949    4.09308498704001    3.23868014060396
H         1.45459173570741   -0.53668859162807    4.99772359237127
H         1.76329207775427   -2.96959971372248    3.93091249516660
H         2.22320367591781    3.25748558617770    3.84709530731962
H         2.53385924469299    4.23285236990096    6.08977318438510
H         1.13356790513984    3.47067751688152    7.97304345902505
H        -0.57768479088871    1.73151725048880    7.60401653115255
H        -0.88415922496540    0.75841809851822    5.35988816025463
H        -3.55008239805033    3.66331522949082   -2.03142385132014
H        -4.34638100946032    5.84711844265558   -2.85206493719824
H        -2.80244061186142    7.76967518037989   -2.94520378445889
H        -0.46101917374274    7.49919869681941   -2.21452182241807
H         0.33053582465352    5.31360502021934   -1.39334344231213
N         0.22383971127898   -1.84586744964794   -0.80556465307657
N        -0.64659366824071    0.70189213721252   -1.78838729214836
C         1.07931628606694   -3.03543748561810    1.16392352439270
C        -1.04628921276837    1.97278808882648   -2.06534913713033
C         0.70167708331501   -2.95309355418935   -0.17540295285360
C         0.00447898160588   -2.19718478256615   -2.10168568821658
C        -0.76284241888609   -0.00605515235132   -2.94464575568041
C         1.55735051895894   -4.34520411515274    1.66000667997215
C        -1.42411111815668    2.07445091467434   -3.44732507398319
C         0.80448277654283   -4.03937257738772   -1.10951005482873
C         0.37209292245478   -3.57096673909315   -2.30327406050993
C        -0.46552568097419   -1.35777757226811   -3.11039103203772
C        -1.25771416864118    0.84582256226332   -3.98982415916843
C         2.87472646413217   -4.50539400862984    2.07810616398359
C         0.69486781015389   -5.43588971530579    1.71123153254354
H        -1.76329097884987    2.96960033416513   -3.93091748808202
H         1.17548239847565   -5.01892495287394   -0.87901623142677
H         0.32019532228765   -4.09309253597510   -3.23868305092978
C        -0.65068217861256   -1.94273194081719   -4.45717643451084
H        -1.45460986040141    0.53668358512709   -4.99771878102459
C         3.31987252973234   -5.73251234145596    2.53540111854532
H         3.55009385995834   -3.66330878858587    2.03143464543536
C         1.14069905711210   -6.66035803184420    2.17469325452525
H        -0.33052503879860   -5.31359282932983    1.39333926025320
C        -1.60892840146856   -2.92816706644437   -4.67271454541102
C         0.13247717926580   -1.51670483909845   -5.52547496099293
C         2.45427707251478   -6.81240086309141    2.58627743523163
H         4.34638711256121   -5.84711127713500    2.85207486525821
H         0.46102540715863   -7.49919022695262    2.21452024931517
C        -1.78309661689784   -3.47205946154406   -5.93248190483444
H        -2.22319399503352   -3.25747051959847   -3.84708614783756
C        -0.03918319046993   -2.06665920269333   -6.78285214486096
H         0.88416907928295   -0.75842278979440   -5.35990861515536
H         2.80244422593500   -7.76966599289275    2.94521554281438
C        -0.99841532395129   -3.04384681066251   -6.99020299515831
H        -2.53385987317939   -4.23285643061734   -6.08975615227868
H         0.57768592842360   -1.73153987227213   -7.60402453774011
H        -1.13357958466292   -3.47068915825631   -7.97303757150013

