70
CSD_code = HAMLOZ | q = 0 | S = 0 | Stoichiometry = C31H33ClNNiPS2 | MND = 4
Ni       -0.61215806477492   -0.51924433342073    4.16592453093143
Cl       -0.18129032784895   -2.39672114811445    4.90044793124207
S        -0.95552583840611    1.57731559857089    3.45525584684617
S         1.21451751540054    0.52607982280955    4.98317366206970
P        -2.47787884537919   -1.40391579985746    3.53894591045670
N         1.14134946326221    3.06703901869893    4.19993498956947
C        -3.47581705390579   -1.37810718267097    5.05841307726895
C        -2.99483422554029   -0.60428347638657    6.10994583384026
H        -2.03498086994046   -0.08752868841417    5.99062916981704
C        -3.70367892498983   -0.51249044782248    7.29248454018480
H        -3.32442964691850    0.08387739602756    8.10886775626703
C        -4.90056562363853   -1.19753977835307    7.42820125006997
H        -5.45672474810384   -1.13250778428466    8.35168628942017
C        -5.38149203057357   -1.97547674511159    6.38665426338101
H        -6.31088837375871   -2.51436327438969    6.50066033327928
C        -4.67409818185003   -2.06994002540397    5.20147387312634
H        -5.03961899715131   -2.68792933682175    4.39281577700725
C        -2.69679066356161   -3.09682148711419    2.91674429014306
C        -2.62950244124128   -4.15975754535146    3.81474985987933
H        -2.45323684651196   -3.96230168207192    4.86119269675276
C        -2.76972029742736   -5.45736093075322    3.36099276301040
H        -2.71523539172629   -6.27751256724808    4.06136672919723
C        -2.97205127610830   -5.70759402457217    2.01328736648457
H        -3.07699271581525   -6.72292008990249    1.66047881632584
C        -3.03435506740569   -4.65343665911067    1.11770083727977
H        -3.18879970848174   -4.84415837495573    0.06572234387621
C        -2.89491241723155   -3.35137831530400    1.56411818909824
H        -2.94402287763967   -2.53326982585937    0.85961642606061
C        -3.44950353215796   -0.42398321064113    2.33908487452244
C        -4.77862119269055   -0.06409843875867    2.51113398520824
H        -5.31091265371932   -0.36252331946622    3.40239607739567
C        -5.41798646903237    0.68864618518131    1.54070155658075
H        -6.45239963589176    0.96884523151248    1.67778597547870
C        -4.73866286441180    1.08772846395983    0.40208583110426
H        -5.24337948956041    1.67720902501555   -0.34918081358849
C        -3.40731742947948    0.74226186960528    0.23198335005739
H        -2.87167249234013    1.06322427166340   -0.64959357715098
C        -2.76515121955650   -0.00478604784416    1.20004050270206
H        -1.71755088712043   -0.26435657317234    1.09320203034436
C         0.54483720007272    1.87851281906825    4.21221148158944
C         0.54767117599178    4.22404243946707    3.55551126104170
H         0.59614490807112    5.06868502309130    4.24932363098636
H        -0.50138102846865    3.99432130223444    3.34923790782976
C         1.27214543617434    4.55128182292507    2.27561529386150
C         2.06328300186734    5.68503397739768    2.16625336646916
H         2.13873379520950    6.37118429523538    2.99889027989506
C         2.75136113532934    5.95165714023664    0.99528154277081
H         3.36152319674427    6.84107133709261    0.92719828759806
C         2.67179559514796    5.08869948620426   -0.08839153647754
C         1.87865498916826    3.95170502745738    0.02695236206512
H         1.80468443567972    3.26960448485279   -0.80788397899740
C         1.18720993672500    3.68519390201233    1.19162009897637
H         0.57292411997263    2.80011866086559    1.26674356511280
C         3.40357113295940    5.37609413199767   -1.36329686079157
H         3.88668702704586    4.47675345401096   -1.74032634433718
H         4.15708306156481    6.14562837499440   -1.21604440810813
H         2.70457196905602    5.72272074974259   -2.12479770553516
C         2.42723413233560    3.25362723916157    4.83859403878297
H         2.95232787044303    4.05214914179086    4.30879144361938
H         2.99756773130616    2.32771895461268    4.73501467985749
C         2.27225320411978    3.60188215067760    6.32097871201628
H         1.77844011874943    2.77001214906910    6.82644008860924
H         1.62881839630144    4.48084040547789    6.41293631429552
C         3.61081804686160    3.88692526467137    6.99916425138672
H         4.12967854797304    4.68234708264434    6.45857482487997
H         3.41068439441850    4.25017438961074    8.00953924595346
C         4.50845267104262    2.65819161571447    7.08559946376225
H         4.84303230105215    2.34445380661471    6.10060104067809
H         3.97468647472575    1.83058039528365    7.54610036273664
H         5.38789736634144    2.87726920554326    7.68644214519690

