111
CSD_code = HAMMEN | q = 0 | S = 0 | Stoichiometry = C58H46N6Zn | MND = 6
Zn       -0.00000519518262    0.00001992425645   -0.00003690071153
N         1.52823574297063   -0.19908808200667    1.32672676193842
N        -0.95528215736446   -1.57313625142170    0.86512809973705
C         1.65239297349260   -1.15940474285687    2.27826640903811
C         2.91055538219910   -1.01188664667095    2.96003463662286
C         3.52336677655960    0.06390941797610    2.41343118781572
C         2.64400359194314    0.56812040087097    1.39268862522337
C         2.93976167277081    1.65702964660283    0.57123692334931
C        -2.13613687354877   -2.11261406489444    0.47415889938220
C        -2.43908479908523   -3.26404514032010    1.28205561219906
C        -1.42208451593002   -3.39975514284395    2.16344225679031
C        -0.48757522025724   -2.34302576328672    1.87945849027764
C         0.72140256165835   -2.16354010047668    2.55372146117051
C         4.20014459434737    2.38362846697504    0.83329534511799
C         4.39120205917233    3.04235058764272    2.04408013476085
C         5.56674747835220    3.72691477674978    2.29184818886516
C         6.57098397832319    3.75606191898196    1.33834759091932
C         6.39183251070494    3.09820148658930    0.13313654665130
C         5.21388883883737    2.41858898730675   -0.11948343779799
C         1.05041093245255   -3.11747314289744    3.63706164124337
C         1.13408660588354   -2.68553887151024    4.95712855443278
C         1.44102861490500   -3.57670438819590    5.96919956703563
C         1.67352648103257   -4.90999769456571    5.67620126094909
C         1.59504246142346   -5.34833337078949    4.36501978565353
C         1.28360404967779   -4.45934232305927    3.35241126562811
N        -1.18740277803195    1.50149263616214    1.43074122975165
C        -0.40935787500543    2.57031587837509    1.90832284852415
C         0.21500348155759    2.50525966437773    3.15877506011468
C         1.04302067407390    3.54905108230343    3.54231371215836
C         1.25813824716910    4.64261483581558    2.72114412178731
C         0.61853609778659    4.71164306570046    1.49677743212443
C        -0.21844966480894    3.68675170418011    1.10186783889145
C        -0.02191785986563    1.33974466185201    4.07268825538079
H         3.27237852553135   -1.65295533743411    3.74053206464615
H         4.48597725889030    0.46876059322219    2.65838362604587
H        -3.30628076704019   -3.88605139901181    1.17557388883491
H        -1.30770434948017   -4.14047196599050    2.93112666335935
H         3.60129907954584    3.02311584552041    2.77977030756187
H         5.70127683939182    4.24007013475985    3.23319448210123
H         7.48996486324935    4.28905889811288    1.53361191706604
H         7.17328497455523    3.11458220575868   -0.61301473452740
H         5.07657829139919    1.90052658866261   -1.05809481656075
H         0.94903806345564   -1.64596369997779    5.18656279288107
H         1.49900044586593   -3.22982336626930    6.99081839659802
H         1.91512255474944   -5.60506012212349    6.46677164891984
H         1.77769442942200   -6.38704426204093    4.13025461762853
H         1.22621805074256   -4.80246688374263    2.32913167748981
H        -1.59847211637223    0.94368653987374    2.16817924424051
H        -1.89097451721836    1.80233660321916    0.76740197427672
H         1.52748830780347    3.50386540814405    4.50831413479577
H         1.91622988209751    5.43757485820030    3.03826636354673
H         0.76878803741997    5.56303335962658    0.84994281496517
H        -0.72431131269657    3.73290069160161    0.14815044920567
H         0.19965014927163    0.40271296297752    3.56586252744465
H        -1.06262331810194    1.31233579072092    4.40321157542491
H         0.60960118194457    1.41636603271650    4.95457481551131
N        -1.52823613495487    0.19907946767862   -1.32671963952099
N         0.95528437416358    1.57312876528213   -0.86511857384578
N         1.18738611432278   -1.50149864018605   -1.43073483780587
C         2.13613662887238    2.11261064902128   -0.47414706940582
C        -2.93976269536589   -1.65703348501335   -0.57122309775080
C        -1.65239059985667    1.15939472879208   -2.27825928258544
C        -2.64400411700536   -0.56812787100011   -1.39268014218097
C         0.48757774968325    2.34301421918317   -1.87945241790689
C         0.40933361259578   -2.57030692809433   -1.90835335712036
H         1.59864635612750   -0.94380165002639   -2.16814814803386
H         1.89082090869351   -1.80237044449778   -0.76725749541549
C         2.43908428435966    3.26403823414737   -1.28204669734311
C        -4.20014573968912   -2.38363436614523   -0.83326979678642
C        -2.91055130341750    1.01187570271127   -2.96002908196493
C        -0.72139804281944    2.16352527877289   -2.55371196516243
C        -3.52336691504260   -0.06391523611950   -2.41342105702860
C         1.42208322527833    3.39974552626765   -2.16343287104303
C        -0.21498421868024   -2.50521615516746   -3.15882574996396
C         0.21837757401688   -3.68674579695370   -1.10191826252610
H         3.30628007706050    3.88604661329993   -1.17556560475230
C        -4.39120946507296   -3.04237149182448   -2.04404474737882
C        -5.21388464893336   -2.41858371844445    0.11951685547860
H        -3.27237389386584    1.65294182551607   -3.74052973737481
C        -1.05040309969570    3.11745523485626   -3.63705316170629
H        -4.48598027202887   -0.46876401241931   -2.65837173043806
H         1.30770537117670    4.14046334810269   -2.93111707684662
C        -1.04300435459269   -3.54898889072393   -3.54240870699098
C         0.02198533147760   -1.33969012049483   -4.07270644095796
C        -0.61861506440223   -4.71161656834642   -1.49687170569757
H         0.72419862438570   -3.73291499332962   -0.14817956259014
C        -5.56675547968607   -3.72694226821517   -2.29179478925616
H        -3.60131426846633   -3.02314283594835   -2.77974223641399
C        -6.39182980300541   -3.09819903056591   -0.13308623499598
H        -5.07656215939007   -1.90051691866158    1.05812384503811
C        -1.13406845483475    2.68552293498340   -4.95712045573813
C        -1.28360566488446    4.45932248251613   -3.35240153642573
C        -1.25816758264305   -4.64256113729176   -2.72126178708769
H        -1.52743805716315   -3.50378072332001   -4.50842486345221
H        -0.19961538724565   -0.40266956116880   -3.56587585051052
H         1.06271086970734   -1.31226639172911   -4.40316602061151
H        -0.60947972726198   -1.41630328866282   -4.95463278836158
H        -0.76890878492678   -5.56301192045673   -0.85005330167294
C        -6.57098661730875   -3.75607722898191   -1.33828773438389
H        -5.70129407588702   -4.24010445318586   -3.23313491599973
H        -7.17327334803738   -3.11457746719221    0.61307380685203
C        -1.44101333482748    3.57668890098497   -5.96919140752747
H        -0.94900393321829    1.64595135256004   -5.18655905437652
C        -1.59504506054862    5.34831442889679   -4.36500958909174
H        -1.22623169446597    4.80244239716032   -2.32911968064572
H        -1.91625554779483   -5.43751012497169   -3.03842002611680
H        -7.48996810929089   -4.28907799859300   -1.53353955809103
C        -1.67352278476077    4.90998031825846   -5.67619252865671
H        -1.49897018155333    3.22981160439746   -6.99081295856735
H        -1.77771241351139    6.38702259709483   -4.13024161061490
H        -1.91512148842160    5.60504221380268   -6.46676339712432

