65
CSD_code = HAMPAN | q = 0 | S = 0 | Stoichiometry = C30H27ClN4O2Zn | MND = 4
Zn       -1.67793958532188    4.92153330713127    5.23551814753540
Cl       -1.77240908898794    6.94923833705100    5.92229456937595
O        -0.61346359223369    4.27470129033732    3.79454833104138
O        -3.26490052684105    4.43137143375825    7.37183133926211
H        -3.90556262644473    5.15121287070193    7.44532711082348
N        -3.32864716041569    4.28072845343385    4.31984889327534
N        -4.41967306012280    3.00522683718426    2.86771708934610
N        -0.96492497675132    3.46100132763334    6.45844610550466
N        -0.70365365399313    1.38751192009611    7.20035119346964
C        -0.77901306701916    3.01903516133032    3.57193885518853
C         0.35409065340407    2.18236110983774    3.42174111391116
H         1.32137656139973    2.65602662036811    3.49911219562432
C         0.24434032766281    0.82930559993712    3.23829628872905
H         1.13537127129720    0.22261352002468    3.15504680511092
C        -1.01037317166507    0.22616398105182    3.18025403273310
H        -1.09884208688693   -0.84354305283406    3.05651739627903
C        -2.13812507833329    1.00885953961321    3.27793652588112
H        -3.10623500184981    0.53130337688953    3.27541343239350
C        -2.06148399938476    2.39383543779373    3.45293780792499
C        -3.25082778486138    3.20571288501699    3.54877515017008
C        -4.57800327845610    4.81366056522879    4.15387377621176
C        -5.15952600612045    5.94217763284260    4.71825205396099
H        -4.59296889391719    6.57629070200542    5.38262209103739
C        -6.45891988676935    6.23091859671168    4.35395859180188
H        -6.94548370686484    7.10130882193379    4.76770981713804
C        -7.15896730188239    5.43162597052052    3.44944805166727
H        -8.17140219063517    5.69928124616692    3.18639400970531
C        -6.58562560917610    4.31503952242404    2.87102439947957
H        -7.13230362248362    3.71866328021514    2.15672036323318
C        -5.28451869444772    4.01034686348416    3.23986457571005
C        -3.84874025122819    3.28931148048053    6.95711039443349
C        -5.22721305055156    3.18106990635004    6.81394882825069
H        -5.84737964624149    4.04018969861830    7.02852238168762
C        -5.79821146729188    2.00351606269306    6.37097436494160
H        -6.86886991103061    1.94066861872296    6.25044687294242
C        -4.99522166012072    0.91639416227331    6.07097997616758
H        -5.43621193414879   -0.00313265730399    5.71696147741975
C        -3.62387396654413    1.00943134102034    6.21858519382060
H        -3.00645718947964    0.17404513008990    5.93305433472584
C        -3.02603990311140    2.18319118521115    6.67069796803526
C        -1.57999823363462    2.33814433478951    6.77223141557801
C         0.55362826026157    1.94390424022945    7.13379721937785
C         1.81726738144398    1.45932198282472    7.44091935461115
H         1.97105792905696    0.46121170491348    7.82147932852277
C         2.88061181662607    2.31561866715285    7.23852749269882
H         3.88033946522173    1.97400195086469    7.46146643526347
C         2.70132420992608    3.61364196521881    6.75149140375736
H         3.56862174111439    4.24004910103382    6.60834642226791
C         1.44930590344582    4.10776747238703    6.45689711904508
H         1.29195478723071    5.10649237865450    6.08071865655480
C         0.37052261346324    3.25516237898114    6.65601986553442
C        -4.71580490780906    2.06195854025689    1.81921161973086
H        -3.77643268593377    1.63801965567675    1.45845085115437
H        -5.18184828491446    2.61517540012914    0.99630896223994
C        -5.66475712603993    0.96051302373162    2.28725387845544
H        -5.22581292171952    0.38850638284231    3.10088529590316
H        -5.87971033273848    0.28676077660171    1.46209844154703
H        -6.59811398007271    1.38825342999515    2.64410468982190
C        -0.96380462130590    0.05895689069031    7.69407236487195
H        -2.02133954110859   -0.01512436983652    7.95636683760502
H        -0.37379563592299   -0.08102311034509    8.60618554307532
C        -0.57934751187336   -1.00566432683258    6.66840071748861
H        -1.09799624620463   -0.84239564432485    5.72653105998646
H        -0.83135509130933   -1.99253213642781    7.04744376366586
H         0.48761683067405   -0.96921877524508    6.46578935527522

