89
CSD_code = HAMQUH | q = 0 | S = 0 | Stoichiometry = C45H39ClP2PtS | MND = 4
C        11.41112851481850    1.55426334599448    3.48208235026860
C        12.11161009576002    0.50578881602970    3.93228968485117
H        12.94477776597076    0.64712165305386    4.61322300630736
C        13.36870266253045    3.13628003946039    4.85841852276334
H        13.64077423878012    4.16658413625458    5.06079152002460
H        14.11915226533666    2.66621243630625    4.22981589511767
H        13.23168199976633    2.59449596407412    5.78983853927887
C        11.78845221831369   -0.88563264977929    3.68109159175830
C        10.94481536373366   -1.30823040718122    2.64991095017331
H        10.58323395768756   -0.58145217515540    1.91747111490890
C        10.60084658555592   -2.63933705864366    2.51389341853193
H         9.94009723531400   -2.94359263642085    1.71487122036652
C        11.10316695775560   -3.58695427483338    3.39020429400578
H        10.82833759013564   -4.62628865184503    3.28609962818200
C        11.97612606453526   -3.19159532874855    4.39200012339710
H        12.38880467148909   -3.92668171899581    5.06895884523307
C        12.31786118553449   -1.86241014256229    4.53190625154201
H        12.99048003367404   -1.56112903963367    5.32361485734801
C         7.25169677558356    2.16169308237472    4.21558662183392
C         7.67041736803761    3.43161800549143    3.82486964087664
H         8.67717594992317    3.56095490397830    3.43275116603771
C         6.80808171499044    4.50665263103051    3.91456612478436
H         7.13380653069170    5.48707584998066    3.59935106030478
C         5.52042204761433    4.31854564539683    4.39158908341456
H         4.83942167893888    5.15485707019943    4.45292345484968
C         5.09944718573219    3.05621274713672    4.77566518693646
H         4.09149521931326    2.90985325354958    5.13637536495488
C         5.95953058146329    1.97512392397044    4.68805015235261
H         5.62000201385029    0.98838643431737    4.96923874286615
C         7.49675375422866   -0.70255629272267    3.91201011534228
C         7.33700831243127   -1.31068650485769    2.67261898665142
H         7.78090253872484   -0.85129222640356    1.79978668729028
C         6.59584070665385   -2.47318305830006    2.56122387678716
H         6.47164035372959   -2.94304680516541    1.59663001202125
C         6.01191938271442   -3.03295687689746    3.68512210175161
H         5.43494257583157   -3.94230861774670    3.60016778001332
C         6.16476955136536   -2.42661776216810    4.92231532576546
H         5.70562042564161   -2.86203860975438    5.79837451393466
C         6.90490905070208   -1.26494210863868    5.04056004584582
H         7.03296746432656   -0.79799474853689    6.00828017744030
C         9.27943495375016    0.72456835105271    5.63290885646715
C        10.52152966150497   -0.53910948541026    7.25608116752724
H        10.90322478113605   -1.48666386450848    7.60746988664094
C        10.78812854574967    0.62328635874549    7.96108657036844
H        11.37744686937530    0.58417688985444    8.86584897679308
C        10.30238489269156    1.83694220644551    7.50212899273759
H        10.51387099132965    2.74604330527622    8.04662870590964
C         9.55343679030245    1.89043414107480    6.34132033338775
H         9.18507133803065    2.83901530856304    5.97591641904944
C        10.91289974095150    1.60818472631884   -1.05215665086594
C        11.63381542110891    2.14727044125706   -2.11516868156384
H        12.13188586306916    3.10055491634943   -1.99575337189821
C        11.70581835529299    1.46394495662765   -3.31394008070615
H        12.25944942794468    1.88403912340695   -4.14092217025133
C        11.06801277795709    0.24050037902258   -3.45571706698453
H        11.12634454946044   -0.28986950452104   -4.39503344397888
C        10.35766815995554   -0.30045671883371   -2.39735509751151
H         9.86183600342727   -1.25324564712101   -2.50965665217360
C        10.28069588294281    0.38040335574066   -1.19508991750367
H         9.71000460521855   -0.02061777682638   -0.36814558475002
C        12.59709680991831    2.93203705702078    0.72946093696945
C        13.44507125824543    1.86547236641969    1.01799520110355
H        13.03065519156863    0.86704128866492    1.08847114800547
C        14.79276930134185    2.08356102894399    1.22499108140684
H        15.44534576085058    1.25334631789458    1.45425635389200
C         9.77658212029691   -0.49106835856220    6.09263189471369
H         9.58397381640421   -1.39645913926208    5.53428051292546
C        15.30405403671563    3.37001361634725    1.14496715660434
H        16.35677058279552    3.54434846301605    1.31417941086014
C        14.46520948608572    4.43133531706152    0.85080408933086
H        14.86452911241435    5.43321749136933    0.78660673385639
C        13.11336383542561    4.21710037041992    0.64215042172342
H        12.46140460460149    5.04956012912925    0.41782128030605
C        10.00558292222942    4.06804603749923    0.16662881867317
C         9.32885079396254    4.31545989480724   -1.02041366621476
H         9.33285053717567    3.57733470619611   -1.80952926747999
C         8.63265284126572    5.50136052158171   -1.17769033613376
H         8.10322200492694    5.69208555254754   -2.09983439449588
C         8.60209513236365    6.43561595984233   -0.15607577464327
H         8.05204140011746    7.35662857363319   -0.28406942041885
C         9.26571142538627    6.18443720090958    1.03495022056766
H         9.23501608881969    6.90880684059896    1.83636912710565
C         9.96097032417944    5.00229406138284    1.20052140945018
H        10.47614177543692    4.78797295576165    2.12956906049691
Cl        7.86495206235499    1.61371014484316    0.84342566150862
P         8.46719285603153    0.82613325465671    4.00902458829012
P        10.83833677173456    2.50133558267977    0.52599395312491
S        11.79102286774950    3.20739124020743    3.95099228880448
Pt        9.78295407883662    1.51328781816178    2.27883228276760

