65
CSD_code = HAMQOB | q = 0 | S = 0 | Stoichiometry = C21H39ClP2PtS | MND = 4
Pt        1.14678077602213    3.50763225910474    2.12712653223402
Cl       -0.89965935705939    3.36753875558161    0.99468842450970
S        -0.26374707647380    1.95152513017323    4.65087356516105
P         3.06780973304211    3.57561025857063    3.38330727297126
P         1.98784196943955    3.37086594198758   -0.10695364551675
C         0.07376699189592    3.50405493356819    3.85927981207091
C        -0.31341374560468    4.59707118273452    4.53275795337916
C        -0.54744118251346    0.85578827021395    3.22584426048498
H        -0.36390153689226   -0.16365150158121    3.55048799041391
H         0.13652575853698    1.14217671867941    2.42490362859139
H        -1.57461277558880    0.96947414714838    2.89257108793591
C         2.87016437225528    4.01209467516507    5.16504777381085
H         2.41716196405509    5.00769412321626    5.18260285219192
H         2.12506238872550    3.31915241635038    5.56519342134255
C         4.36487075753314    4.75320822722325    2.80093671547447
H         5.11465647367940    4.87733172507523    3.58504201743692
H         4.85824195212818    4.30217853784503    1.93740631193266
C         4.03599550847051    2.00455861298090    3.41711092920417
H         4.22444626164446    1.73034847320532    2.37498638116906
H         5.00243845050185    2.18832808363301    3.89453070715076
C         3.78743924003197    3.49704438086619   -0.56683318358115
H         4.10478358150920    4.50899350438888   -0.30048275950617
H         4.32348119828279    2.80855749794992    0.09327704116634
C         1.52530659853835    1.70817909555483   -0.75451841824941
H         0.44294589506360    1.63110414455666   -0.61962759023467
H         1.73988886007822    1.64613932927878   -1.82445862035629
C         1.18232998398090    4.44421211777820   -1.37222458704057
H         1.47610475034333    4.10177716735983   -2.36822911582535
H         0.10721893212479    4.28520389211452   -1.26000038417332
C        -0.02672187519852    5.97820993945636    4.18827662879118
C         0.32895589239762    6.38113838544119    2.89928514654186
H         0.34832096182847    5.64146465943558    2.09777340618245
C         0.59811478910830    7.70633898587882    2.61884944509056
H         0.86064262692802    8.00405199204666    1.61276125084955
C         0.52456889369084    8.66354461342674    3.61790509043006
H         0.73580359243363    9.69952819844887    3.39629513212543
C         0.16366661896155    8.28246730479263    4.90040011117291
H         0.09473362213956    9.02424793753002    5.68378531135143
C        -0.11501646592736    6.95976029974074    5.18061129569470
H        -0.40041875158864    6.67111969160783    6.18300187150074
C         4.12261601833715    3.98674555598212    6.03249122552354
H         3.84831475645263    4.22529756532907    7.05802341664901
H         4.85489287102065    4.72201595912957    5.70825996412035
H         4.59001792630193    3.00552362012180    6.03245541288040
C         3.75243793471899    6.09217158941167    2.41797760988015
H         2.98549825020163    5.94097527826862    1.65868706753274
H         4.50838902377351    6.76777661083790    2.02161878814547
H         3.28293438189676    6.56543674400212    3.27747823567534
C         3.27811889248892    0.88404817454257    4.11655628392797
H         3.17583255616898    1.08316663683994    5.18004966810507
H         3.79543707981782   -0.06533228206362    3.99155285573453
H         2.27798774186817    0.79141424998419    3.69981030296798
C         4.16488070169934    3.21172653274675   -2.01436680234769
H         5.24304484523378    3.30986386201213   -2.13541489805042
H         3.68907479695346    3.91394986015250   -2.69368561909839
H         3.88721218210094    2.20229028476380   -2.30671292465656
C         2.22530394364557    0.59510823139318    0.01619633101377
H         1.80768609255081   -0.37536765405711   -0.24492757300875
H         2.09426210939357    0.74763399681842    1.08835787939997
H         3.29245541325668    0.57554334326455   -0.19857198749932
C         1.50550434364285    5.92082414947590   -1.18408737025145
H         1.19583467680357    6.24839309877419   -0.19353718426467
H         0.97123138892366    6.51981561318095   -1.91941347157797
H         2.57131952003399    6.11386765205191   -1.29659349029859
H        -0.86192407580398    4.46844721854942    5.46210521556710

