60
CSD_code = HAMSOD | q = 0 | S = 0 | Stoichiometry = C27H27NO4Zr | MND = 13
Zr        5.91206744871895   -0.06794056802438   11.14712162079211
C         5.28855965228023   -2.36306645601500   10.48807658368387
C         4.06946126084559   -1.64367648599690   10.47425895838905
C         3.77320667421141   -1.26009428518480   11.80448821267104
C         2.52148091396912   -0.62388006805135   12.34338874264575
C         2.28995407648924   -1.13639180365611   13.76858568282521
C         3.53026595121258   -0.90015315519903   14.62896684814318
C         4.71697239305667   -1.74398686027262   14.14888570530298
C         4.80163190766810   -1.75740233915394   12.64528185762104
C         5.74702346775066   -2.43453377504901   11.83116295497879
C         7.00110399777609   -3.12818690553199   12.29928935258909
C         8.23991727539073   -2.57378410244384   11.56091777233048
C         8.15039076784814   -1.07512551585368   11.42385316742974
C         7.98012352384197   -0.15139738296260   12.49038699449949
C         7.95890922728491    1.15484179206043   11.94520523504962
C         8.10192880147405    1.04449564870763   10.54114180774789
C         8.29019680086959    2.13734319526505    9.52469904559314
C         9.18905780802396    1.60650658540027    8.40327242909685
C         8.61377914946272    0.31456512031159    7.82506823282235
C         8.63730284226745   -0.82269650630803    8.85330843656469
C         8.23654018521389   -0.33032669300541   10.21891557803298
O         5.39345522799487    0.95388795438832   12.85835259525128
C         4.68479758651049    2.01571241922476   12.95338120365920
O         4.33377634076820    2.59324444777272   13.96216174936245
C         4.27354314739789    2.53285302627619   11.56677075766773
C         3.50828637477883    3.65565169923948   11.27655994407538
C         3.24484724180465    3.94376985371350    9.94326651098689
C         3.74612507440207    3.11496678602054    8.94695773088942
C         4.49975468336102    2.01203810124104    9.32822745677007
C         5.14930925387322    0.96274303216600    8.41356500084790
O         5.07931963148679    1.06135494647498    7.20543838646556
O         5.73385324161316    0.05285352031060    9.09816501803234
N         4.74693104190266    1.74363803311618   10.60695593213570
H         5.72827662723507   -2.86754604494425    9.63572716955246
H         3.42137135166810   -1.51166694099858    9.61452142610626
H         2.60566173426354    0.47336910677213   12.37085759830948
H         1.66695626659767   -0.87060933308396   11.70516031660780
H         1.43196916037014   -0.62624572117412   14.21002328862394
H         2.07037431904483   -2.20610569004902   13.73160929230128
H         3.79490038963011    0.15702424659197   14.59508667955433
H         3.30917113462318   -1.15157577244737   15.66828432378490
H         5.63792334814559   -1.35683065353474   14.59643106738532
H         4.58815809348787   -2.77727340047735   14.49556366932131
H         7.11548288129506   -2.97266754786247   13.37517269438620
H         6.93056102437183   -4.20733824317907   12.12574708984065
H         9.14419930034087   -2.85698682231253   12.11027751007073
H         8.30372341637261   -3.02061872194458   10.56533257397505
H         7.98620205978635   -0.38894106899603   13.54765426927523
H         7.94805575862846    2.07847440376065   12.51354541285401
H         7.32897875665685    2.45295557585930    9.09036717355121
H         8.74327387973754    3.01668456026250    9.99354373515256
H         9.27918133080333    2.35590172435420    7.61483743438773
H        10.18578175203979    1.41307506167159    8.80706590674723
H         7.58840301555256    0.49218666120723    7.49945528998068
H         9.19134485226201    0.01604882239091    6.94779505287732
H         7.98044359975976   -1.62917814310037    8.51216588431601
H         9.65488894213535   -1.22843085261405    8.91909571652866
H         3.14047948763334    4.26908324118370   12.08384947083298
H         2.65241607036022    4.80826814184402    9.68211547848599
H         3.56864847564842    3.29882015184223    7.89913697023940

