49
CSD_code = HAMTAT | q = 0 | S = 0 | Stoichiometry = C20H22Br2N4Pd | MND = 4
Pd        2.20467891008867    3.60791804730536    7.27007104734011
Br        3.51483864117690    1.82062515424150    8.24619193840948
N         1.45245025426205    1.58327407213070    5.22380922713622
N         0.21925374551192    1.37967701008108    6.97395683240263
C         0.84174910189845    2.91650638169936    1.07132717479793
H         0.41890584519259    2.36885091601066    0.24309207131856
C         1.40075979595611    2.23913151175824    2.13639586176585
H         1.41763656377016    1.15905308482580    2.12316478746985
C         1.95291952096958    2.90981442628003    3.22567086511348
C         2.50325420512495    2.05040392378327    4.34335253094983
H         3.00059389781750    1.17574418796810    3.91345355427972
H         3.23707517655451    2.58301323721234    4.96992649323365
C         0.66614333978774    0.47521657876589    5.03207268433942
H         0.72614488675212   -0.13259623412781    4.15363727861962
C        -0.10687075401655    0.34547049588637    6.13430428175616
H        -0.83945033082590   -0.39031376139491    6.39364841967650
C         1.17291016666542    2.13945287865762    6.41485055737104
C        -0.26376808394901    1.54042389455055    8.32764270507158
H        -1.33344280505856    1.77805945137302    8.32005513277350
H         0.29984121270120    2.38810339392298    8.76578572904684
C         0.00945660511274    0.30741290152267    9.13684101895652
H         1.04593962271894   -0.00091955404671    9.14661330265956
C        -0.91667801599972   -0.35572936106370    9.80091433551294
H        -1.95041994123683   -0.04713020312036    9.80234972296704
H        -0.67822398699568   -1.22731172245863   10.38432103137792
N         1.45305449736908    5.63284680731521    5.22386767453216
N         0.21946909798311    5.83644285393246    6.97372669634037
C         0.84207118665507    4.30026731407199    1.07127207647121
H         0.41966473105548    4.84811002373919    0.24293768967763
C         1.40129938648229    4.97738023355543    2.13641925928208
H         1.41889256528534    6.05744221567327    2.12309362556786
C         1.95319127055536    4.30642037880409    3.22568620608741
C         2.50379769097237    5.16556694115734    4.34343490888578
H         3.00134635531834    6.04015493295611    3.91363564683538
H         3.23747905643304    4.63273494880577    4.96998388721390
C         0.66685692830263    6.74095471787984    5.03198305971832
H         0.72707043806932    7.34876059136911    4.15355437629036
C        -0.10641201252738    6.87069708305196    6.13403192654848
H        -0.83905514270057    7.60648601428228    6.39319536037583
C         1.17327362979423    5.07667134110585    6.41484961404493
C        -0.26398830026650    5.67558838037065    8.32724297504798
H        -1.33363877980362    5.43783584287854    8.31930152351198
H         0.29957515681013    4.82795832678184    8.76554165810485
C         0.00881174491194    6.90865753471857    9.13648413413785
H         1.04527463145893    7.21706946054755    9.14667140714030
C        -0.91764941145298    7.57172053908319    9.80019559401687
H        -1.95129793101460    7.26290980465387    9.80141123552108
H        -0.67939475252560    8.44313861705779   10.38396594483847
Br        3.51491038885720    5.39573438444458    8.24616493546249

