28
CSD_code = HAMTUK | q = 0 | S = 0 | Stoichiometry = C13H7NO6W | MND = 6
W         0.42745702964928    1.15482784678616    3.10055131202860
O        -1.90514470210009   -0.54118290747171    1.85710429765703
O         2.40542672879879   -0.31226085004205    1.15088439512847
O         0.87749587455999   -1.09616067047309    5.23850019313610
O         2.84903519820936    2.67557630729865    4.39446138568620
O        -1.59782639331661    2.50704188850710    5.08225932008745
O        -0.14266271697239    2.19861178414665    0.33952574879594
N         0.07228431288669    3.98227111828966    1.55648595813551
C        -1.07262564906546    0.09755359867826    2.30215025890103
C         1.69464896936376    0.23748713855451    1.85243592504914
C         0.71431921618563   -0.27608435107071    4.46001341940629
C         1.95757978467150    2.15526776192651    3.90140166376339
C        -0.86005667234137    2.03743913691634    4.34516257958952
C         0.10132269702135    2.63717725865617    1.57540562039612
C        -0.33246506668099    3.26133271277983   -0.48905806004105
C        -0.61311710093431    3.30088690622789   -1.84173390695322
C        -0.75372103296241    4.55848736065150   -2.40456328434018
C        -0.61881466201577    5.72013675097930   -1.64838569774360
C        -0.33788254776037    5.68067098208261   -0.29379490264159
C        -0.19740125074903    4.42593168470474    0.27458598636703
C         0.28140303868425    4.85892188127682    2.67393166467400
H        -0.71594991918299    2.39763416640876   -2.41930233870212
H        -0.97384746587665    4.64086071146737   -3.45733117344363
H        -0.73698299342164    6.67719222039310   -2.13239385495690
H        -0.23396035954354    6.58222034466963    0.28805392578620
H         0.43678420613217    4.26115332531652    3.57116832935785
H         1.15845256513821    5.48545729177741    2.49998171301477
H        -0.59095108835295    5.50014860055897    2.81279952187085

