40
CSD_code = HAMTAQ | q = 0 | S = 0 | Stoichiometry = C19H15FeNO4 | MND = 7
Fe        0.79357896920689    0.67087724699594    2.92194558099277
C         0.48602988362861   -0.30313689956022    1.50039208442684
O         0.36337180131742   -0.92625354062613    0.54507629366290
C         1.59530494986346    1.99506452990928    1.99908463070786
O         2.15588532380516    2.74215241548935    1.34237998888052
C         2.10282408872009   -0.47353860020661    3.30820907410630
O         3.02172676547120   -1.14608527217886    3.44930686370818
C         4.63268140642065    2.04214037602187    3.71121767598706
H         4.59064523943208    1.96017258206044    2.62642016871028
H         5.23983616790309    1.22395945112822    4.11185065921107
H         5.08489831496456    3.00126744507545    3.98328353910689
C         3.05495510418481    2.00005282037812    5.49668271348108
O         3.29903316513481    1.95802562704721    4.15129268381265
C         4.01691418965782    2.19216408456937    6.47285020520439
H         5.05079957933147    2.33687305069378    6.20214583005696
C         3.66427994449573    2.20555668387397    7.81564332200484
H         4.42780922039164    2.36558706359689    8.56144473250747
C         2.34874200376573    2.02110105894874    8.19181401733422
H         2.07169808106179    2.03875936256269    9.23496608055981
C         1.37915143547524    1.81235971642436    7.22711581021846
H         0.34496908660532    1.68845530967876    7.51429924500765
C         1.70962617186923    1.79598622818439    5.87438414562083
N         0.75233634702522    1.63973239086006    4.89202570748575
C        -0.23407321885518    0.76368412466110    5.02005185025756
H        -0.31113435612172    0.10384431778888    5.88931314663374
C        -1.16963494467737    0.70057069780528    3.96544828924145
H        -1.94464602207803   -0.05404249719998    3.97335888498639
C        -1.12573499894881    1.74398003381538    2.98563862194980
H        -0.88137847325069    2.73197536677413    3.37467009433868
C        -2.04990449054440    1.77782358613469    1.85138610354919
C        -2.62605454228457    0.62124569197426    1.31984825509166
H        -2.38004453983278   -0.34289208766229    1.74071611312611
C        -3.49367872955904    0.69239567643092    0.24805959251203
H        -3.92877365446512   -0.21278257221663   -0.15003367310566
C        -3.80332013881286    1.91669769583301   -0.32247007042456
H        -4.48011893566991    1.96885330339601   -1.16217973234286
C        -3.23359786483299    3.07188124596711    0.18716867866781
H        -3.46620756318437    4.02948007222754   -0.25553649180236
C        -2.36653987341080    3.00280345145617    1.25996591944819
H        -1.92175489319590    3.90720876187341    1.65076336507575

