127
CSD_code = HAMVOJ | q = 1 | S = 0 | Stoichiometry = C57H60ClN7PRu(1+) | MND = 6
Ru        4.00263564773258   17.35167935034652    5.36915184903203
Cl        5.60988441556337   15.76238161020382    6.19108246895714
P         2.67914375165888   15.74507907619061    4.30288912146103
N         6.22500801393580   17.58459754689077    3.17389797960173
N         5.02648510796262   17.80480848835152    3.70374447452460
N         2.57443900369343   16.97368475770411    8.17214505868407
N         2.71986993255931   17.45040383142672    6.93698093140795
N         6.19587792316791   18.49772372815038    7.15918345424618
N         5.16197032815246   18.65848930431266    6.34200314430510
N         3.02469592621795   19.22668797094424    4.86511845546534
C         6.44484837113838   18.36776889715003    2.09542218851970
C         5.31172389805720   19.15161336136611    1.94993142511392
C         4.45190565979692   18.77043820322525    2.98544591071878
C         3.08775821383785   19.24446355050010    3.39799748044676
C         1.56457264770326   17.58548584278429    8.83008109436347
C         1.04896047766734   18.52591244474120    7.95482264983327
C         1.80142917104681   18.40602699367436    6.78150741496498
C         1.68902461706623   19.10648609320847    5.45725539430183
C         6.61862894106603   19.67946092348197    7.65454835688866
C         5.78551806063825   20.64795500055642    7.10919150162927
C         4.88443336765397   19.95223827314270    6.29621082513458
C         3.75104927930313   20.39087204642644    5.42770781927245
C         7.69972071047039   18.31877160282470    1.34116432826828
C         7.71596695603334   17.77926121730495    0.05249867962675
C         8.91422384329369   17.74827753560026   -0.64192184298671
C        10.08869224526803   18.23797169537162   -0.08605492600088
C        10.05005490064876   18.76053501743972    1.19975570997219
C         8.87154382555614   18.80603086550624    1.92640447344133
C         6.45987578544500   17.23492024091909   -0.55927471515625
C        11.37627776412456   18.18159961333344   -0.84528923366415
C         8.85764460749391   19.37526448516659    3.31593985738804
C         1.17234098780601   17.19813499719114   10.18853586829021
C         0.48828122490548   15.99443988161227   10.38085613343687
C         0.12541861293901   15.63202308592937   11.66766528902285
C         0.42839107961928   16.43363675450628   12.76019270181964
C         1.10789524163295   17.62507104945250   12.54418175736275
C         1.48486168549420   18.02239935369471   11.27168995565697
C         0.14042054931112   15.11774399774493    9.21381075364327
C         0.00610235489824   16.03381300440974   14.13824816310586
C         2.21684100633260   19.31347075810172   11.05718039045364
C         7.72370438181515   19.78295311627587    8.60647093787873
C         8.82281266846484   20.60065026236763    8.32520426932546
C         9.85343228039038   20.68222917177048    9.24874463689421
C         9.81813310514934   19.97799192510212   10.44292646196817
C         8.71723637492632   19.17251993798593   10.70385304689222
C         7.67056737582800   19.05897680626243    9.80479569131937
C         8.91307448719603   21.37800822230481    7.04588294789282
C        10.94421479333101   20.06223338405045   11.42360648273691
C         6.49816212820393   18.18302963557492   10.14250227826967
C         3.42582539844500   14.91570885388591    2.85387004183184
C         2.70841474223194   14.41633492736894    1.77089914608019
C         3.37263035844119   13.79199746546197    0.72984367857629
C         4.74977686285570   13.64796302300871    0.76034009936042
C         5.46528941928377   14.10487594213663    1.85498910713340
C         4.80514337008134   14.72837851012264    2.89736762806039
C         1.03124723196776   16.26401698478352    3.70465240806482
C         0.84590269751761   16.81395011914782    2.43748742555280
C        -0.39881991081661   17.28391480397710    2.05417796769605
C        -1.46661590495061   17.22703931269067    2.93488688620064
C        -1.28587482206669   16.70397269280890    4.20588131486245
C        -0.04475584518775   16.23125332396891    4.59067212510849
C         2.19288969198260   14.26273420643046    5.26029886036980
C         1.25873840321284   13.36945292637972    4.73881427177546
C         0.90086426295952   12.24398987866698    5.45499387420532
C         1.47415489379388   11.99131697088571    6.69194214553825
C         2.41477347829284   12.86606277122350    7.20677849556929
C         2.77274553057496   13.99798336438356    6.49381399769628
H         6.84051716460580   16.88349638790195    3.56426038088796
H         3.17141015959080   16.23384753289437    8.51613950269902
H         6.55399279375522   17.55189964310889    7.28889919498821
H         5.13997718473223   19.89968794124520    1.20416364182893
H         2.87866883168546   20.23950688461653    2.98204348590347
H         2.33500793910108   18.54912123194807    3.01080082764876
H         0.23186689907102   19.19263808852168    8.13622595292890
H         1.06117314789237   18.49801555881904    4.79762343588969
H         1.19682573160264   20.08076962777205    5.58090425314420
H         5.81611807059851   21.70169761959727    7.29022609050928
H         3.06681770070427   21.02119493454907    6.00789776859421
H         4.14739182525819   21.00781702177656    4.61246084628844
H         8.93410008799666   17.33321250069634   -1.63893510945314
H        10.95792759324577   19.14245582000397    1.64345776326169
H         6.68690775032035   16.68355550992977   -1.46742071405457
H         5.94303213339116   16.57045402518906    0.13276685728813
H         5.77931883542444   18.04617820408101   -0.81513764819144
H        11.19715721031733   18.18585921629489   -1.91724980754460
H        12.01542116549894   19.02277512227277   -0.58854915100539
H        11.91236959189690   17.26536606588276   -0.59641949621336
H         9.71489507775497   20.02605507350629    3.46630306745618
H         7.94885543451659   19.94823890094682    3.49553755759253
H         8.91082082494220   18.57733416954664    4.05782264425535
H        -0.40757531410836   14.70543046285339   11.82286387230931
H         1.34879626452782   18.25725654826816   13.38620754035415
H        -0.23221050727088   15.71175309082849    8.38045795882654
H         1.01173841373992   14.56214206810698    8.86554890212024
H        -0.62327107795757   14.39799245482731    9.49512762212646
H         0.68166725309039   16.44014516807965   14.88667659312426
H        -0.99324435046321   16.41859585981994   14.34319252629220
H        -0.02527437046230   14.95165456490282   14.23715302536959
H         1.56236515471861   20.04405159665458   10.58273263880013
H         2.55443687300141   19.72404126551167   12.00458331493786
H         3.08172803608130   19.17133469627246   10.41056998559623
H        10.70428706916748   21.31057231457046    9.02923417290063
H         8.67514527010852   18.62158442418559   11.63215664764748
H         8.45961379051800   20.83737335155046    6.21807186341284
H         9.95231693455895   21.58409358620775    6.80333687722339
H         8.39948059493502   22.33363330227619    7.14891453770616
H        11.57161055025316   19.17425374042274   11.34414133688226
H        11.56395538321107   20.93444430586230   11.23390762214439
H        10.56581064272244   20.11092815257459   12.44221526584667
H         5.56624877137302   18.60553641691806    9.77035723655672
H         6.62361668682403   17.18976562068445    9.71019337519031
H         6.41769006223613   18.06605614011779   11.22025065382843
H         1.63309331298420   14.50861252883320    1.72954392137322
H         2.80892973420447   13.41272734646062   -0.10942806000144
H         5.26116165630902   13.16768594444301   -0.05988927036007
H         6.53600381076721   13.96827391413444    1.89703626361741
H         5.34910972346379   15.04961389999358    3.77515167795007
H         1.67365159467006   16.85470484411877    1.74054308001048
H        -0.53487413853317   17.69257223878942    1.06399081783332
H        -2.43671097455845   17.58900712743689    2.63159323306141
H        -2.11448793605879   16.66241707595746    4.89664035037733
H         0.09878800468584   15.82463498949172    5.58325912037727
H         0.80840201357248   13.55781162653824    3.77495412375195
H         0.17515232350742   11.55729021722246    5.04578840957041
H         1.19321474178099   11.10926391730272    7.24696921863589
H         2.87919186060021   12.66098819723712    8.16062544135923
H         3.53118539602381   14.66511892984125    6.87680818998563

