87
CSD_code = HAMWAT | q = 0 | S = 0 | Stoichiometry = C41H37AuClN2O4P | MND = 4
Au        5.73345804629044    9.76834172495774    0.06575568239389
Cl        6.22430586809595    9.70601089674247    2.35984719551156
P         5.42390361767330   12.04993695000282    0.42019771121167
C         5.25934766409798    9.90509630974960   -1.85687838217174
C         6.11688725439681   10.72440277708581   -2.59322352385620
C         5.91028211848943   10.91856560985791   -3.96260921039802
C         4.84655809100343   10.30243252561553   -4.58244499962442
C         3.98727123820847    9.49708376978986   -3.84903181051326
C         4.19541168334856    9.29843296661502   -2.49134690867318
N         7.15432964613928   11.29777396219209   -1.87338636302497
N         7.93820336434056   12.04819287561930   -2.51893854183808
C         9.07925695128044   12.52340546979165   -1.93292336993429
C         9.92314834290314   11.68477916206317   -1.19477091211814
C        11.13846073680963   12.14950065753280   -0.73691759111613
C        11.52020174129528   13.45848620823204   -0.98588948131212
C        10.69313927017244   14.29318881670831   -1.72602778677079
C         9.49232941557522   13.83012096644788   -2.21922105736724
C         6.15598677223819    7.78132164800641   -0.30253708829644
C         8.62382163732606    8.05304914995228   -0.87478757524022
C         8.95858535833791    8.40925725103327    0.42991774078332
C        10.27090063529924    8.71751782213449    0.74636746424585
C        11.28507756369955    8.65944628003504   -0.23520854098376
C        10.94172774872568    8.30821720326734   -1.55011576111602
C         9.62065466425310    8.00571723840410   -1.84487217395157
C         7.23950846508913    7.74309236822434   -1.31895996017052
C         9.77196778364407    9.07262066390773    3.04509962793622
C        13.67991604683769    8.55150138087343   -0.44222391002591
C        11.61121093537221    7.92476181266286   -3.80710943866287
O        10.69611147129356    9.10184341409374    1.98004064651436
O        12.52208914995804    9.01820751873012    0.21426292422249
O        11.93910994393940    8.30459122488142   -2.49306574919186
O         7.00613394255242    7.49824231628019   -2.49267819780951
C         6.74387372215231   12.72478389069351    1.45595402373929
C         8.00818508580966   12.16330197516106    1.31206674391768
C         9.06234593847852   12.62553810287462    2.07601937999553
C         8.85330939925323   13.64405987586491    2.99193691430939
C         7.59124452845597   14.19517083943706    3.14577865264928
C         6.53052320746231   13.73877546382302    2.38365098916680
C         5.26021915873367   13.22014640156413   -0.95458028093601
C         6.14902410273649   14.26712300624656   -1.16128914447002
C         5.97665218388989   15.10149262423448   -2.25165309243433
C         4.93535596538236   14.88649089994373   -3.13918285278568
C         4.04936162030898   13.83990311966354   -2.93357504830450
C         4.20845723509873   13.00894110891836   -1.84259860099544
C         3.88846404948129   12.40227183528675    1.32956977805302
C         3.27537080492255   11.38623282504063    2.05408279539975
C         2.11435626250986   11.64268577939488    2.76158969986220
C         1.55586300057050   12.90954868704999    2.74488572043003
C         2.15748282534651   13.92260459934387    2.01474316779258
C         3.31768208383710   13.67442967204156    1.30588034114230
H         6.59852883115307   11.55206986816387   -4.50196850086731
H         4.68453611464037   10.44008070793714   -5.64137159307669
H         3.15436338968114    9.01112283025813   -4.33550705478442
H         3.52157928722755    8.66070091266163   -1.93849055799884
H         9.62332732131884   10.66006202419048   -1.03901876742043
H        11.78458313420169   11.48700710191203   -0.18046175826362
H        12.46560242043295   13.82661103463676   -0.61649637642024
H        10.99714000322337   15.31027454602141   -1.92741688008972
H         8.84078869237388   14.46741822407106   -2.79721980332935
H         5.28239034370805    7.26482718538630   -0.69439357420343
H         6.45635438256123    7.32691003473552    0.63673244063108
H         8.20683747295043    8.45584512721130    1.19652359985284
H         9.31455266725200    7.73954298827181   -2.84349119393883
H        10.33159700226957    9.39041199009169    3.92336725059885
H         8.93353430291637    9.75586899788766    2.88533872995053
H         9.38363707233242    8.06298861655906    3.20982011534968
H        14.49855969420980    8.74622083864603    0.25106659173584
H        13.62296269912595    7.47918814222870   -0.64414467877142
H        13.85861531191717    9.08421688635005   -1.37924720684316
H        12.54654962250831    7.97296638259360   -4.36340737813535
H        11.21743024935183    6.90458317091228   -3.84654042087019
H        10.88692883517536    8.61168140556605   -4.25576520419218
H         8.14681810891173   11.35450505497935    0.60896731419388
H        10.04059815189514   12.18301245862688    1.96313879409039
H         9.67331584198999   14.00138815973695    3.59707681969974
H         7.42801213033609   14.97931860555993    3.87080601923201
H         5.54303322877537   14.15753160376426    2.51852475978653
H         6.97096070709982   14.42190368673452   -0.47524220461716
H         6.65944365938920   15.92386142715423   -2.40911091728103
H         4.81281058711130   15.53578423693076   -3.99328469953805
H         3.23805296023008   13.67081540253331   -3.62579798712699
H         3.52463117691239   12.18754958368703   -1.66783172702139
H         3.71649548929183   10.40001770527706    2.07296020658056
H         1.64572467801803   10.85060374877427    3.32629692835479
H         0.64966777083470   13.10905706535907    3.29734005903350
H         1.72054558737142   14.91053120897332    1.99695458650059
H         3.77882272827226   14.46428138751953    0.72739442408808

