80
CSD_code = HAMZUT | q = 1 | S = 0 | Stoichiometry = C24H47N4O2P2Pd(1+) | MND = 5
Pd       -1.80574099925488    5.83496453986306   10.60791298383120
P        -1.76380633728953    7.84072857951637    9.55839666272426
P        -2.44981287550001    4.59304202955602    8.82923453271476
O        -3.23750871769214    5.32260995392817    7.62032786052971
O        -1.87688448267065    7.88445823231054    7.94243844179060
N        -1.07687995602286    4.06774722358559    8.01061713678573
N        -3.10416202759481    3.05645798252518    9.00615866642378
N        -0.50509315432949    8.90456642894939    9.84787339377344
N        -2.97840490411981    8.89402643578950   10.10573618686700
C        -2.47184541229264    2.18173921802173    8.01905884752138
H        -2.85758838079063    2.40172380052502    7.01255352760502
C        -2.59373377594223    0.68933743926864    8.28048563280749
H        -3.63619977884904    0.37269580450484    8.23823365933653
H        -2.20315250387815    0.45665930824912    9.27275094056522
C        -1.78833821620858   -0.04268468599700    7.20420896379841
H        -1.82548700121174   -1.11646668280045    7.38977688994050
H        -2.24634394817647    0.14357526681375    6.23084835551423
C        -0.33219946756569    0.41842702558494    7.17261760415755
H         0.15454187354549    0.14052892201791    8.11000724747808
H         0.19177375698087   -0.09001645140367    6.36295720207376
C        -0.21886609490294    1.93275355799734    6.98129226701498
H        -0.62742759714091    2.22830049520847    6.01436415876817
H         0.83021090565910    2.22870236573089    7.01416002411114
C        -1.00993628919579    2.60800242948625    8.09166096712287
H        -0.59739287646906    2.29754872332199    9.06561886700806
C        -4.52557202891189    2.92800921179092    9.25183723315200
H        -5.11863167518737    3.00424938696726    8.33426402356713
H        -4.82504802606729    3.72922041055986    9.93264944628739
H        -4.73084527401391    1.96832452788873    9.72649900030476
C         0.13799835617038    4.79944561489768    8.33135832866164
H         0.95035460040372    4.45496834689455    7.69319577128742
H         0.44366141224022    4.67580924262422    9.39073132144832
H        -0.04033827826626    5.85893184119572    8.12178806434939
C        -3.91618438866887    6.56942872036105    7.70614058743128
H        -4.07841671520165    6.82254817057532    8.76888010193878
C        -3.01525317226619    7.65888970825089    7.10853837357401
H        -2.60168368000866    7.28371331923520    6.16428966191038
C        -5.25164199082611    6.41897642015384    6.99240506283909
H        -5.87052809563178    7.29732763177855    7.13996703808704
H        -5.77370919979738    5.55372762781699    7.39311246373496
H        -5.08936691849964    6.26093697135594    5.92987914965776
C        -3.73955162381453    8.97889817286624    6.88482950119225
H        -3.01165102759802    9.73433402553838    6.60028294716187
H        -4.23275851813541    9.29365319559589    7.80068483428617
H        -4.46649360112024    8.88671734164845    6.08482059394648
C        -1.07031087507734   10.24000916386315    9.63595937857331
H        -1.31438567756565   10.38804459400981    8.57353574302170
C        -0.23070068846617   11.41618795286597   10.10636042523009
H         0.70079640596284   11.47701943777197    9.54305266219800
H         0.01287865188366   11.29787187320337   11.16358449896737
C        -1.04787481834305   12.69279871587358    9.88579108597412
H        -0.48436674145477   13.55075681456844   10.25326495536841
H        -1.20413646772277   12.83204397187100    8.81408752659395
C        -2.40370444236967   12.63750869663692   10.58925414004825
H        -2.96819011405434   13.54136916986271   10.35921652868558
H        -2.24883081294737   12.60850593858625   11.66982532371693
C        -3.21176803049301   11.40791653770968   10.16750572913658
H        -4.14674002511581   11.36415585357335   10.72726136276382
H        -3.45057972661195   11.45747162007947    9.10430204105732
C        -2.36059726067064   10.17839829347281   10.44712126125327
H        -2.09239221896048   10.17588158920310   11.51570240665970
C         0.82719484960291    8.61181748512844    9.35828749838716
H         0.92994649859609    8.78057096470917    8.28199972663930
H         1.03977193582847    7.56248361561974    9.57574388541808
H         1.54934323413423    9.23336615278304    9.88743461409751
C        -3.90887763754891    8.37823327690028   11.09923527341944
H        -4.90950269103347    8.77396126983852   10.91409077430117
H        -3.60915730786621    8.66247420580258   12.11408867196409
H        -3.95014133797774    7.27489151729033   11.03899150730615
C        -1.56301322145076    4.21081680365158   11.93470469402107
H        -2.28135272456794    3.40565456907224   12.05723800084046
H        -0.54783434167792    3.87702106525306   11.70231762348568
C        -1.73517088584111    5.39288128395917   12.68214785977496
C        -0.85670601185699    6.45342098952708   12.39533100707910
H         0.18752738118017    6.22841858053149   12.15722731367827
H        -1.00363528730725    7.40998926057347   12.88641940764808
C        -2.99613012742688    5.60543508478418   13.47289994362086
H        -3.11197319304643    6.64618064943422   13.77107604474293
H        -2.95901009444735    4.99527334041558   14.37567566247104
H        -3.87523808900056    5.29193183106162   12.89912089687826

