64
CSD_code = HAMZUS | q = 0 | S = 0 | Stoichiometry = C26H30FeO7 | MND = 7
Fe        0.74641684515221    0.45593171862341    4.06426607301771
O         1.77368788162341    2.15584141637394    6.18681856076554
O         1.63596183178926    2.29676643900729    1.99595844662924
O         3.29780751314247   -0.94985441245384    4.08475060174289
O         1.67667116015511   -2.34000088786244    1.96987172507473
O         1.50512711609826   -0.49129691825350    0.70417665070640
O        -1.14419765402224    3.12430240361126    2.58926990969505
O        -2.69999712216074    4.47325677701748    7.70801827146990
C         1.33304718746436    1.45385148787972    5.39696763415245
C         1.20484071650243    1.63027715900092    2.81492817866919
C         2.25721947089744   -0.48280672121853    4.06963367821336
C         1.11775703915420   -1.29148267489067    1.72456709275665
C        -0.01322311412820   -0.70247593953925    2.46651496924010
C        -0.78763604260621   -1.73130023590539    3.30845667299105
H        -0.19668757482135   -2.65283152421837    3.27832947911456
C        -0.71562904527546   -1.22048932591735    4.73919345532033
C        -1.17458477248788    0.01354571556907    5.17438230445946
C        -1.34936760210733    1.11956581909772    4.30483590089693
C         2.64567043666471   -0.92318184451351   -0.01830617646694
H         2.84609736953702   -0.15401199742778   -0.75977764141984
H         2.44897782828334   -1.88182942064529   -0.50368477875606
H         3.49904086069524   -1.03957448221099    0.65356911584622
C        -1.67086776663965    2.46860635044362    4.77548271918994
C        -1.56094665247098    3.50877272215114    3.83324971908350
C        -1.83317399322520    4.81512916394967    4.21178361463878
H        -1.75247442551426    5.62548236483213    3.50518282082369
C        -2.21348299777943    5.09904478022863    5.50897796946409
H        -2.43021784703709    6.11091940138087    5.81029302377158
C        -2.32106998846910    4.08334371917149    6.45583850189768
C        -2.04758330339297    2.77547792145756    6.08022973487245
H        -2.14409330278317    1.97583331232319    6.79600032461154
C        -0.91712938836284    4.11872047134003    1.62011056944814
H        -0.55279565122632    3.59209641846009    0.73943559205063
H        -0.15855787206557    4.83493056422569    1.95032622630817
H        -1.83881138195306    4.65259559597921    1.36756348726288
C        -2.77947211810794    3.50023214581654    8.71936693016480
H        -3.53907275624291    2.74390692040638    8.49404640483485
H        -3.06651016966382    4.03693478445735    9.62228403683393
H        -1.81392179690847    3.01000726486344    8.88324937917035
C        -2.19438506527609   -2.06501592378883    2.83243430735754
C        -3.26545154043970   -1.48430617995267    3.36186134141170
H        -3.15389879362973   -0.73821732768113    4.13536914664505
C        -4.68949489278500   -1.75011612350764    2.98418694223178
H        -5.04398465745130   -0.91909263024402    2.36349435991380
H        -5.30708986851058   -1.75806381873201    3.88631766016357
C        -4.83497291240419   -3.05956056540679    2.22254066487467
H        -5.81576321554464   -3.11317555889525    1.74522940832235
H        -4.75591878807551   -3.90025225347975    2.91265277553858
C        -3.73649524960092   -3.14117982742507    1.17387709109497
H        -3.81633644078485   -2.27095656322936    0.51770442388805
H        -3.87005955008221   -4.03407299552888    0.55952165640640
C        -2.32676660161489   -3.16547495821051    1.79017779941224
C        -2.07211276164256   -4.51926798036520    2.47165445073372
H        -2.27911376466733   -5.33110266268687    1.77763539668224
H        -2.70236524239014   -4.64122050080924    3.34907450754717
H        -1.03450463303943   -4.60230030618446    2.78502986842022
C        -1.32854127460563   -3.00802491194857    0.63807147305607
H        -1.39085606381609   -2.01320995275612    0.20220282840291
H        -1.55829543155524   -3.73434690576800   -0.13989592587410
H        -0.31041009312714   -3.18501036457911    0.96583054902103
H        -0.63431658303275   -0.13620349926271    1.77185860276809
H        -1.74874933587054    0.93110433778032    3.31445781170363
H        -1.20347270236395    0.17842430489503    6.24871828001528
H        -0.56396345540157   -1.98339328484107    5.49613340171909

