113
CSD_code = HANGEI | q = 0 | S = 0 | Stoichiometry = C60H38F8N4OsS2 | MND = 6
Os        0.00881109277837   -0.05064140113799    0.01205904000734
S        -1.40594443886235   -0.01642059377864    1.94480446943323
C        -2.99988158165287   -2.17226674912950    1.35599111535828
C        -4.16466343819647   -2.77911987937808    0.91052043124438
C        -5.22693252975762   -2.02280276901867    0.44441003960416
C        -5.10337343742360   -0.64420147444391    0.43312255132909
C        -3.94781391177848   -0.02736112938551    0.88892963852884
C        -2.86450785460225   -0.78136545732183    1.34600127560342
F        -1.98809439473682   -2.92525292607772    1.80628983550286
F        -4.26934180174450   -4.11458393878266    0.92328351442261
F        -6.12121452435733    0.10050426157602   -0.02121373703782
F        -3.86543136030813    1.30858480689215    0.88191116561248
N         1.61303916980650   -0.19186687476351    1.25216135815910
N         0.03167956459103    2.02644629043976    0.25817397708555
C         2.19631595743859   -1.34217168079257    1.67269665785861
C         3.20210062816553   -1.04633457801894    2.65399148862556
C         3.20475630853092    0.29538401603542    2.82182126806342
C         2.20645953009430    0.83574473041975    1.93968875254663
C         1.88285485891642    2.18730141485009    1.86515837193138
C         0.87212840925190    2.73269853237019    1.05316750255531
C         0.57878982148503    4.12889091882021    0.93512234995436
C        -0.46773057386223    4.23956993976972    0.07654686670671
C        -0.80324657708694    2.91333262704342   -0.34701439680845
C         1.84706866677157   -2.63351753493812    1.26223136758389
C         2.62082734188659   -3.75934856486816    1.82132021366990
C         3.98183120184142   -3.87910378901605    1.56092391010322
C         4.70286371941276   -4.93530478204714    2.08584557340076
C         4.09054220493382   -5.88885826776146    2.88915901050315
C         2.73043430374166   -5.76121949740276    3.15010147869689
C         2.00051787277220   -4.71483465494468    2.62112495956858
C         4.87307173826614   -7.02079226533945    3.48114566617819
C         2.60947709886027    3.12629042867187    2.74279045073966
C         1.90763284872448    3.87775739295342    3.68309736664083
C         2.57011627989984    4.76004542712638    4.51297915402064
C         3.94759077621473    4.92964273061437    4.42469234455864
C         4.64486594993366    4.17778409022640    3.48802790220344
C         3.98900667646919    3.28333418467323    2.66313893903155
C         4.65706626092018    5.88268866097107    5.33598253162094
H         3.80378275776107   -1.77710051285129    3.15645194971725
H         3.80551396958919    0.87270550717159    3.49564621303055
H         1.11080539053324    4.91729049038381    1.42935295151212
H        -0.96740095983265    5.13461940655976   -0.23569455415177
H         4.46725794401253   -3.15023305054043    0.92933327402415
H         5.75786124978848   -5.01943188655793    1.86734208947132
H         2.23894452918509   -6.49290284293916    3.77555783452456
H         0.94591624082418   -4.62120871149316    2.83547076089490
H         5.82183364666975   -7.15032108627188    2.96643315982912
H         4.30999207548128   -7.95025996728950    3.42387253192192
H         5.07995220909404   -6.82121015966534    4.53305618107354
H         0.83845940261263    3.75059549596893    3.76859943116694
H         2.01039025726470    5.32956739743876    5.24107214200972
H         5.71581911966547    4.29341503817720    3.40155921151157
H         4.54684715902676    2.70904568173304    1.93868534967480
H         5.63311063268475    6.14916638682939    4.93831460018031
H         4.80152200467738    5.42427147038661    6.31486555582555
H         4.07238029075308    6.78940056006301    5.47619203500471
H        -6.13357233119179   -2.49657636951108    0.10596295654074
S         1.22250528616973    0.38251512555996   -2.00012961900864
N        -1.63000833675211    0.13546203286435   -1.23524562865150
N        -0.01099159030355   -2.01984039918938   -0.23411885102810
C        -1.84784131672794    2.59558379124153   -1.22645994173384
C         0.81718657435163   -2.92735201463094    0.37005034478859
C         2.73900648576830    1.00654111789414   -1.38713976617914
C        -2.20763834565819    1.30694557760972   -1.62984545586140
C        -2.22055516406554   -0.86368113158386   -1.93240282816378
C        -0.85360796776019   -2.73380594861718   -1.05443152253707
C        -2.61301763320362    3.72164203802899   -1.79486232358152
C         0.48213727502856   -4.24762344654334   -0.07185308535373
C         3.00911927867087    2.37686464996255   -1.36455806734935
C         3.73866433503657    0.13812438943716   -0.94002380439258
C        -3.21927917518360    1.02370093651221   -2.60824422785826
C        -3.22441809737548   -0.31795185125283   -2.79879796857386
C        -1.86543417180161   -2.22005374546750   -1.86161272632928
C        -0.55040415275912   -4.12958846625455   -0.94065081999620
C        -3.97365963543242    3.86057348045430   -1.54058695580730
C        -1.97817315285443    4.66392888871083   -2.60019971315271
H         0.97680736035249   -5.14487468756772    0.24231500723047
C         4.22623550204475    2.85274469675736   -0.89719755629829
F         2.08422577071634    3.23925414547488   -1.80257579167626
C         4.94782183701718    0.62400156587029   -0.46890136265400
F         3.51611135706154   -1.18266398343518   -0.96886112693714
H        -3.82446562626961    1.75983081989061   -3.09854145766980
H        -3.82935830301649   -0.88491953556717   -3.47775689810923
C        -2.58380127215685   -3.16217241416554   -2.74310028655674
H        -1.07535442411808   -4.91440476874072   -1.44797118735691
C        -4.67929735176966    4.92163005060387   -2.07631652394717
H        -4.46990289453618    3.14589065916248   -0.90210990763811
C        -2.69365210909457    5.71378283246788   -3.14132858127877
H        -0.92416504354526    4.55576622043296   -2.81041872740640
C         5.20590664036751    1.98433684148174   -0.44664521888195
F         4.46434535784174    4.17083867173518   -0.87796887892849
F         5.88559349589840   -0.22853026240009   -0.03172474743257
C        -1.88178867359860   -3.89849486279442   -3.69492500575414
C        -3.96178612415514   -3.32894182970274   -2.65856424059131
C        -4.05303870813555    5.86067529159400   -2.88602191572801
H        -5.73356317532171    5.02105289559558   -1.86087043854890
H        -2.19094648127833    6.43360272807041   -3.77153003421298
H         6.15324820397938    2.35824736741096   -0.09485768815810
C        -2.54231093116926   -4.77726604437146   -4.53009114745491
H        -0.81385407811562   -3.76363812430020   -3.78429456652953
C        -4.61582372828335   -4.21940267988430   -3.48927639841208
H        -4.51993083616573   -2.76542481702766   -1.92588754673316
C        -4.81949027658425    6.99744331516321   -3.48925830346539
C        -3.91821295997064   -4.95688054241144   -4.43692259731648
H        -1.98249907609067   -5.33591350866098   -5.26655363323908
H        -5.68559587306175   -4.34303460758028   -3.39903709685165
H        -5.76945777197996    7.14087199014395   -2.98050808891194
H        -4.24616604260354    7.92080058476620   -3.43470844703946
H        -5.02286713448611    6.79363460264895   -4.54102538039182
C        -4.62580301012771   -5.90471626865310   -5.35518638231410
H        -5.60141861647927   -6.17598171979271   -4.95970098430883
H        -4.77090589383814   -5.43923393071208   -6.33065149291575
H        -4.03951705042735   -6.80936020893191   -5.50217048338110

