51
CSD_code = HANPUJ | q = 0 | S = 0 | Stoichiometry = C23H26ClTa | MND = 5
Ta       -3.16458615851267   -1.97094557853793    5.37671735762527
Cl       -1.50849584613720   -0.35895197329019    5.47348260633549
C        -4.87095444075626   -3.41356879001038    5.28850685628615
H        -4.87099472149552   -4.03228557717660    4.38721475859465
H        -5.86044116389225   -2.95059038423570    5.30968016416259
H        -4.87889344242235   -4.12808529741625    6.11597646391057
C        -4.07826859724669   -1.17315062942969    7.31286534410849
H        -4.38001213279411   -1.97580594885762    7.98404397769468
H        -4.96423388991768   -0.58122540352811    7.07816474625055
H        -3.37760815390703   -0.53402519419647    7.84597388842201
C        -4.03060454296322   -0.98579722889933    3.50625349285568
H        -3.32449275394000   -0.28302399043806    3.06911307255848
H        -4.93455398804298   -0.43556409507643    3.77144425668365
H        -4.29494924829340   -1.71611044030301    2.74310131872883
C        -1.90115375288525   -3.83067625659580    5.30030735578533
C        -1.65662792812107   -4.55394851891251    6.46904671656235
C        -1.20094337228790   -5.86854776579672    6.40851870825140
H        -1.01800092207795   -6.40957503031439    7.32611140786968
C        -0.97726082627233   -6.47053082888122    5.18376128285722
H        -0.63124335728751   -7.49271373887609    5.13844579040467
C        -1.18474118013881   -5.75722072334880    4.01735048313086
H        -0.98960090520697   -6.21086405892637    3.05594405102491
C        -1.63917829092846   -4.44193607629679    4.07302068808202
C        -1.85769784415675   -3.91133170481908    7.78421300637381
C        -2.66887094169721   -4.48905525709272    8.75754452096709
H        -3.18892582848421   -5.41041549847845    8.53717224563750
C        -2.82181557343212   -3.88534334012604    9.99070860837345
H        -3.46306404899444   -4.33919470059721   10.73331385302565
C        -2.15844104864585   -2.70148388071502   10.29593081657104
C        -1.33255115468248   -2.13850838348848    9.33207708711403
H        -0.79384667923311   -1.22862059123949    9.55627837041197
C        -1.18551577450672   -2.72806779477268    8.08915664658818
H        -0.50699641013551   -2.29804951299069    7.36373247616510
C        -2.34548592102853   -2.04936088913655   11.63181996069510
H        -1.57921905968355   -1.29890259981404   11.80938469695136
H        -2.30829357111129   -2.78733200034664   12.43093450283267
H        -3.31907969725156   -1.56016732986988   11.67483757368684
C        -1.81514022361002   -3.67969423638190    2.81954217707029
C        -1.13137026680614   -2.47791064110389    2.63658157180485
H        -0.46921176062732   -2.11769528530364    3.41339128478104
C        -1.24715837566857   -1.77943927679049    1.44822638258187
H        -0.69939395229086   -0.85684531178428    1.31742976872119
C        -2.05427718445606   -2.24851596637719    0.41995223234461
C        -2.73320979204929   -3.44802086025636    0.60529163038880
H        -3.36302634843833   -3.82786739132798   -0.18697731092979
C        -2.61031440767531   -4.16066244547272    1.78265991288761
H        -3.14288424952614   -5.09239397382169    1.90985780054717
C        -2.17177607105507   -1.49905827955990   -0.87216397984214
H        -3.19387087115205   -1.52714370560894   -1.24415520241654
H        -1.52900567788850   -1.95326137098815   -1.62709834254858
H        -1.86911765014359   -0.46211424223103   -0.74918707893865

