67
CSD_code = HANQUK | q = 0 | S = 0 | Stoichiometry = C24H38N4Pd | MND = 4
Pd       -1.28494005090122    7.65957509045725    3.29053801966308
N        -2.32034274875941    5.88364541053888    4.14256629835140
N         0.68522342382400    5.52950035752830    5.68644223550347
C        -2.37026716786295    9.13420117710157    4.19494570403445
H        -1.76746860897410    9.73267178189338    4.88735531688802
H        -3.16129241040059    8.63155563858205    4.77236666198807
H        -2.84545465165802    9.81946415431608    3.48539014173323
C        -1.66359293303471    5.22238269238356    5.09299785263983
C        -1.85278460377671    3.86180385416017    5.29767935990150
H        -1.30668146092346    3.35787665474736    6.07901279516248
C        -2.72609407474060    3.17564247726053    4.47078464286368
H        -2.89442201985274    2.11728355826203    4.60680786845758
C        -3.36577785309900    3.86532664010695    3.45477415296368
H        -4.02607491772693    3.36371174251769    2.76549675043326
C        -3.12632174203967    5.22600084388466    3.31217748057849
C        -3.73942935673825    6.01698651586797    2.18257401814430
H        -4.82040888699126    5.90268604299509    2.23894667897550
H        -3.48050399606721    7.09205657602506    2.34345411328093
C        -0.67400191437653    6.01089309438678    5.91488322524399
H        -0.78467116119117    7.08648107908723    5.63423722205765
H        -0.93603581460754    5.89210232877277    6.96487303926447
C         1.60931776595847    5.70286357679260    6.81987228802380
C         1.04647982923183    4.95188416988031    8.03785454693473
H         0.22588884619861    5.48416851527567    8.51093560606815
H         1.82402203494864    4.83263879850388    8.78763732472673
H         0.70256901565817    3.96559444807435    7.73716527925356
C         2.95646134983317    5.04479114962818    6.47958611028171
H         2.79144705574873    4.07790466062426    6.01098337102704
H         3.52951152506247    4.89170281448861    7.39026268230185
H         3.56242695934594    5.66170941432050    5.82126319579969
C         1.83658375952561    7.17848860815144    7.17936834778200
H         2.24540646657319    7.72205148972118    6.33073811134447
H         2.53668912826070    7.25620160866812    8.00734938183128
H         0.90372196228251    7.65373186060111    7.47303004976491
N        -0.24975470762653    5.88367893366515    2.43864415371992
N        -3.25530349314614    5.52951660781301    0.89474825659224
C        -0.19945818948274    9.13436097957795    2.38642667473567
H        -0.80244725562131    9.73301635054348    1.69424825812944
H         0.59158939374078    8.63203833413023    1.80870467601659
H         0.27560021873894    9.81953196935876    3.09614961251032
C        -0.90650809499290    5.22239225360043    1.48824781209164
C        -0.71731608813450    3.86181564201134    1.28352625629914
H        -1.26343218367781    3.35797246385485    0.50214811084527
C         0.15601932959644    3.17563359861879    2.11035647689515
H         0.32447446915913    2.11730985242783    1.97422313880803
C         0.79564727250159    3.86531212004638    3.12641416645066
H         1.45595529117645    3.36370413607810    3.81568549173903
C         0.55620561019263    5.22597433486170    3.26902839023690
C         1.16939528510861    6.01689759297555    4.39861290054425
H         2.25034582568361    5.90243077780864    4.34222564754637
H         0.91066660187422    7.09201254639229    4.23773195004459
C        -1.89606713042315    6.01083277181566    0.66628724711135
H        -1.78536213755792    7.08646995660455    0.94673316790183
H        -1.63401578131135    5.89178793196879   -0.38366137866436
C        -4.17933374195546    5.70284584925245   -0.23874662262247
C        -3.61642527849437    4.95189560963864   -1.45671920102346
H        -2.79580497125750    5.48420942844105   -1.92972384388943
H        -4.39393806081529    4.83275822124657   -2.20656297578856
H        -3.27256043813580    3.96556381711279   -1.15610626435105
C        -5.52645575405280    5.04472442993021    0.10148746231687
H        -5.36137295731486    4.07792806753392    0.57025570351142
H        -6.09939707599493    4.89141921063115   -0.80922347011513
H        -6.13254395403873    5.66167172903115    0.75966494953638
C        -4.40653855191863    7.17845337842961   -0.59838143830416
H        -4.81568359640931    7.72211289124648    0.25003010993497
H        -5.10629776588597    7.25608171023615   -1.42665605674488
H        -3.47356483825024    7.65366767750747   -0.89174923528445

