70
CSD_code = HANQIY | q = 0 | S = 0 | Stoichiometry = C28H39P2Ta | MND = 7
Ta        2.40733166048282    2.07006902765774    2.00278200066097
P        -0.48969495574054    3.24140266401629    1.59414383548402
P         5.01596019382245    3.81174250497312    2.37809991233820
C         0.98908513711021    0.38264857615019    1.49399579532551
H         0.27837618006299    0.18521453127600    2.29756366746233
H         1.54940048639511   -0.54123743688391    1.33022571816018
H         0.40748019804629    0.56065637908328    0.58822740471612
C         4.13730668530663    0.71915175061143    2.54134436348491
H         4.87958787016639    0.66048996135567    1.74401227136177
H         3.77925407297492   -0.29819067223426    2.71847518452946
H         4.66311521667314    1.02732224994901    3.44656320834623
C         2.17642677120745    4.32956942441624    1.98648934722507
C         2.32975689435511    5.04323737456454    0.79736702902673
C         2.17066971703273    6.42864935761267    0.78710654943914
H         2.26663517866840    6.99102622818463   -0.13115585824982
C         1.90195433723979    7.09828690057185    1.96924740639576
H         1.79632427269714    8.17475208320362    1.96270039732265
C         1.76532171146547    6.40330309496400    3.15931918953647
H         1.55778805846039    6.94702917949465    4.07036234551074
C         1.88015806479240    5.01350964569031    3.16605310432167
C         2.68142782149815    4.21486742438950   -0.35479134479388
C         2.78992610724673    2.84572819333771   -0.07868300297003
C         3.13285669015832    1.98765091692278   -1.11046131671563
H         3.22160714471771    0.92174681746999   -0.91622604381356
C         3.36981371276581    2.44654738844620   -2.40288377334945
C         3.25568973342816    3.80935532968457   -2.65309674952861
H         3.43673539545780    4.18160861223041   -3.65246968482001
C         2.91591353694932    4.68879992287547   -1.64322585417557
H         2.83485910882355    5.74388803740944   -1.86502060913086
C         3.74792815289145    1.50509794105390   -3.50843891604482
H         3.08307554201052    1.62999489393841   -4.36253485740626
H         3.69577191566694    0.47124872876703   -3.17497967491996
H         4.76452358769458    1.70695595879778   -3.84702174015510
C         1.68222500150474    4.14545573833703    4.32580947865218
C         1.83947467397251    2.77795795179637    4.06591282132866
C         1.64690580089162    1.88032208749684    5.10303184081462
H         1.76329422530290    0.81504149824200    4.92056135350211
C         1.30286970805176    2.29834122097843    6.38513045843996
C         1.15511555012429    3.66071937930321    6.62008267150849
H         0.88848183918630    4.00134759192587    7.61152251589116
C         1.34149952011602    4.57886878869347    5.60478015029639
H         1.21798640348958    5.63234662258957    5.81433809090668
C         1.09490977853200    1.31383110330140    7.49827203914191
H         1.19503161340259    0.29225107192597    7.13895655119078
H         0.10294767469191    1.43359258862806    7.93328471198443
H         1.82614726541099    1.47482569108760    8.29064733456382
C        -1.99521352909138    2.20398067368734    1.90518205069802
H        -2.09150455385718    2.04650696541203    2.97769475766173
H        -1.88154341983716    1.23810580943488    1.42077302797139
H        -2.89291314316284    2.69274987414303    1.52922486502843
C        -0.72459754057336    3.53732276925827   -0.21334727545192
H        -1.74800445204390    3.84428991095643   -0.42468379806032
H        -0.49329130314135    2.62718232743873   -0.76220689432797
H        -0.03285901670757    4.31338985206061   -0.53082173594482
C        -1.16868157159620    4.84246258075630    2.21573763603732
H        -0.52947043663665    5.65325188132668    1.87820166838589
H        -1.16575414639700    4.82890392267848    3.30341150794991
H        -2.18401285903289    4.99832507120200    1.85381476200562
C         5.15761211681681    4.20048016384051    4.17785735520463
H         5.10143082743144    3.27880655966575    4.75287622709323
H         4.32155700266410    4.83374726837041    4.46348961075944
H         6.09692470035309    4.70942714808948    4.38974767363023
C         5.36874802172686    5.49849132512822    1.71323109779166
H         6.32615604197166    5.86614261337094    2.07968988715408
H         4.57437582058648    6.17328598158235    2.01904704113948
H         5.38560490772957    5.45363077551505    0.62647323810567
C         6.70469210067434    3.09037913339481    2.11673783408620
H         6.84868083455987    2.91991087473169    1.05157650210371
H         6.78055836419060    2.13810402655435    2.63446959591977
H         7.47904997821990    3.76279816706147    2.48310404231876

