64
CSD_code = HANQEU | q = 0 | S = 0 | Stoichiometry = C26H33Cl2P2Ta | MND = 7
Ta        3.54763968288816    2.34559546106391   12.18884123357086
P         1.49399269625764    3.25115378417789   10.85271109461986
Cl        1.96623123133337    0.65084228664894   12.26143848698517
C         0.00923326868525    3.33457237275339   11.91875503820251
H         0.17562697862439    4.10140164801128   12.67363637163797
H        -0.12280985277176    2.37527873167705   12.41365465663623
H        -0.87241786751118    3.57839518008524   11.32684207087494
C         1.34237803235530    4.85466163284755    9.97162283787114
H         0.36976816907044    4.90192199768020    9.48248503284024
H         2.13081813443132    4.94034389003443    9.22796425742281
H         1.43668889308957    5.67070011321106   10.68275463838728
C         0.95998082869974    2.11834370951094    9.51147674357167
H         0.00727359095891    2.44733388271764    9.09729052194055
H         0.86334906104364    1.11085069364613    9.90819652448414
H         1.72263727535849    2.12699123212402    8.73301302542280
C         3.54755900019879    4.57349345094244   12.18883084106997
C         4.13981078864969    5.28723263786893   11.14277283907985
C         4.15578116294235    6.68111052480764   11.15268279854470
H         4.62619108293190    7.23422972385301   10.35255372051226
C         3.54753031495654    7.36784713473945   12.18881314711539
H         3.54753514766918    8.44897664681802   12.18881639238097
C         4.63396055633805    4.44116109182663   10.06217871871977
C         4.39419208956113    3.07263328021887   10.24891524171900
C         4.73449842504624    2.20450449334277    9.22246809809740
H         4.53954608031416    1.14286277802195    9.33289327176624
C         5.32956444478762    2.64613744562572    8.04515882711997
C         5.58811670231660    4.00472807858314    7.90068517180102
H         6.06057933762629    4.36285783154886    6.99617384228764
C         5.23938713946747    4.89849974654470    8.89384499103334
H         5.43782996229865    5.95187317842290    8.75442540979541
C         5.67343894060605    1.68579868343147    6.94577309025895
H         5.71891125432520    0.66632397230555    7.32143765430411
H         6.63266846876715    1.93897283821207    6.49776080748678
H         4.91722502950182    1.72605397200641    6.16012827805583
P         5.60113733155482    3.25107008845270   13.52493027356112
Cl        5.12881804492019    0.65161525012647   12.11641559323662
C         7.08586295764210    3.33451946483335   12.45886561166967
H         6.91946976332441    4.10133750147325   11.70397205944365
H         7.21788033899802    2.37520708970342   11.96400452788611
H         7.96749018742282    3.57834944454365   13.05080612241287
C         5.75264644315848    4.85462463993609   14.40598146132872
H         6.72524338642658    4.90188786302004   14.89513591677785
H         4.96420866723542    4.94035043399087   15.14963987250691
H         5.65836921371136    5.67066650614804   13.69484741279593
C         6.13504708194855    2.11830743310997   14.86623093480819
H         7.08775585146240    2.44731888200636   15.28038989488549
H         6.23166977053583    1.11081953399105   14.46950786947420
H         5.37238941722281    2.12698110721875   15.64469405383039
C         2.95526100868888    5.28723325421136   13.23486490955966
C         2.93927523125183    6.68111183666236   13.22494244092655
H         2.46887386235688    7.23423340187179   14.02507635593748
C         2.46109981313421    4.44117241572986   14.31546549933604
C         2.70086623180520    3.07264532328463   14.12873802506117
C         2.36056639517420    2.20451312745037   15.15518292287856
H         2.55550351265252    1.14286693476556   15.04475213602848
C         1.76550099233031    2.64614908093870   16.33248770623091
C         1.50693195204752    4.00473807637388   16.47695053897965
H         1.03447073285723    4.36286456681225   17.38146222225353
C         1.85566352801183    4.89851312401283   15.48379351019840
H         1.65722884613463    5.95188903520331   15.62321405335926
C         1.42163334846965    1.68579829588331   17.43186437627633
H         1.37611929882258    0.66633003840568   17.05618636575319
H         0.46242723291535    1.93898504233734   17.87991709474232
H         2.17787350696629    1.72601708219303   18.21748456224120

