72
CSD_code = HANREV | q = 0 | S = 0 | Stoichiometry = C26H40N4OPd | MND = 4
Pd        7.68506075868592    6.70354775860280    2.14252494917585
O        10.35090367244578    6.82310537023945    3.93012237990043
N         5.88128516428787    7.99432883927088    2.06574479850931
N         7.44702751728666    7.65951953326462    4.17373924519439
N         4.72948793744639    5.64833510898600    4.24713724262269
N         8.13161947609958   10.48837406581561    2.40621896607388
C         7.54915001954106    6.01221046872637    0.22191770646249
H         8.45326420191167    6.20174819982278   -0.36628434544830
H         6.71302805578015    6.54587393323782   -0.25064439515106
H         7.33728668635220    4.93792396276145    0.17840640869432
C         9.23651573259822    5.36149441607927    2.42811379646184
H         8.96534216237768    4.72610371196017    3.27933377216921
H         9.52632535825029    4.77735059853257    1.55530734119175
C        10.18310493068957    6.40002852567645    2.78762086740391
C        11.02338741143688    6.95910356472053    1.63347973583029
H        11.61649324139752    7.80383404600343    1.97861242700926
H        10.38825593721774    7.26418587260401    0.79976335385580
H        11.69768852190539    6.17953909482236    1.28268289585813
C         4.80257501061025    7.50877494665259    2.67822734951979
C         3.81815171719763    8.34453723429252    3.18999119555894
H         2.96036242175323    7.91637342473970    3.68307392717637
C         3.97489976161422    9.71520777368874    3.07927292755847
H         3.22642999320155   10.38808411672207    3.47098307348571
C         5.11586175138490   10.20696213499823    2.47051931662663
H         5.29686633018926   11.26646134506965    2.38835232695953
C         6.05827448203402    9.31005449297779    1.98314189733373
C         7.35119786625457    9.80308791467434    1.38544722676954
H         7.89142182391419    8.91876822810975    0.96479332161544
H         7.11098230665296   10.48691075235397    0.57314739865493
C         8.75622297882583    9.49736776137952    3.27786077778186
H         9.57839960822549    9.94324976324429    3.83339919321981
H         9.15426681196032    8.64765371393879    2.69047195189264
C         7.77596896899883    8.94430179654518    4.27951182725124
C         7.21851917062979    9.76185805828048    5.25533145256896
H         7.51303704483023   10.79741401342036    5.31359860232870
C         6.28076465201210    9.23006706665900    6.12240457425637
H         5.83341801084972    9.84176702559998    6.89247417229954
C         5.91659466494237    7.90287192124070    5.97615613967238
H         5.16992270963209    7.45200196260337    6.61014538578625
C         6.51795929260723    7.14826940455410    4.97699703139284
C         6.10432821185444    5.71794085233565    4.73497528822066
H         6.81649973637691    5.27697641546572    4.00207588091589
H         6.19268338420852    5.17803129929834    5.67596334463043
C         4.69321800097313    6.01163180889783    2.83525464901168
H         3.74757879033421    5.69993864832364    2.39545586955992
H         5.52865332383621    5.54230718244883    2.26169575030282
C         9.03151856352338   11.55307708685778    1.93124288871365
C         8.24262544518954   12.54601365704370    1.06300385208107
H         8.07372291804945   12.17056531108070    0.05691819559467
H         8.80413426525501   13.47179447660870    0.96871339836082
H         7.28578071954957   12.77258869522454    1.52660572549009
C         9.53918169246693   12.34110916724057    3.14905872056244
H         8.70086128800899   12.61396441552317    3.78489650651652
H        10.03418959404615   13.25038885100748    2.81815505222443
H        10.25770658797558   11.77913583362939    3.73825123573353
C        10.22062577383230   11.00784999278572    1.12712029812482
H        10.84115073596342   10.36264812142803    1.74339131413492
H        10.83383853199217   11.82929698294829    0.76526874696860
H         9.87241834439974   10.43569947276384    0.26973580548594
C         3.99985472027936    4.42470466657824    4.62059265039617
C         4.67871533145823    3.14891837983647    4.10032896474153
H         4.79136199947579    3.19009301145194    3.01906767646627
H         4.07690656930707    2.27885211862092    4.35025464059321
H         5.66319060311323    3.02180675071582    4.54370119531677
C         3.88633404973564    4.37278418620751    6.15272306127141
H         4.83184627650242    4.14077047866172    6.63423342420471
H         3.18014409750492    3.59932538430499    6.44288271859574
H         3.52747152409957    5.32838431942928    6.52626980130194
C         2.56389980842488    4.49119276534334    4.07699478695432
H         2.14438064295114    5.48046090984262    4.24134402215599
H         1.94431338093213    3.76698097146457    4.59940372468792
H         2.51284092437570    4.25041586375863    3.01822259515317

