53
CSD_code = HANSEW | q = 0 | S = 0 | Stoichiometry = C20H23ClMoN2O5Si | MND = 6
Mo        4.42446978624579    1.85127179486384    9.07393112193679
N         6.39059746534899   -1.15466656059365    7.64181311059337
Cl        3.48573106295250   -1.57598936115452    7.11476112556628
Si        4.85297710018402   -0.10906433642964    7.59262405717212
O         3.78268963969641    4.24637304066987   10.92340369708394
C         4.01702408965638    3.36246905608649   10.24274604748608
O         5.82988637828280    3.92860108826994    7.24170089069910
N         5.76665838199407   -0.02987589373069    5.97415394751980
C         5.31518528256466    3.12724568974538    7.87368175431078
O         1.70180072715832    2.40191031330140    7.67220991491719
C         2.70027220579548    2.15492620608803    8.16358174344825
O         3.01082433960944    0.04408726819011   11.17529173288514
C         3.52485797606927    0.66824230812470   10.37192870256033
O         7.10057664932222    1.63403129011468   10.63573781360321
C         6.12510441990344    1.66460444101966   10.04076324225962
C         6.75359818058759   -0.78055108883403    6.42843168896953
C         8.00714478525904   -1.11328982617287    5.73495996713537
C         9.11773644188831   -0.28736061553543    5.87787614509126
H         9.05061507872486    0.59439707279350    6.49849864654899
C        10.29871517678862   -0.59795510156632    5.22664770285632
H        11.15720344303905    0.04634979757959    5.34136161046049
C        10.37916712771661   -1.72940187994895    4.43182531930843
H        11.30155511182359   -1.96892346194149    3.92506120743083
C         9.27517300521638   -2.55318926778261    4.28775598040264
H         9.33412736078455   -3.43591391474711    3.66906265396702
C         8.09089658803132   -2.24927814333084    4.93605092300901
H         7.22794941225159   -2.88957806421023    4.82630580631511
C         7.06432127321706   -1.98846241409510    8.61677369232979
C         7.29187946723383   -3.39286528314381    8.04229297401811
H         7.66092791918743   -4.05323836369405    8.82244627836615
H         8.02148378585514   -3.37281164326104    7.23701093067891
H         6.35544320685681   -3.79393210565334    7.66140447421523
C         8.39863506042806   -1.36504583147296    9.04200258449789
H         8.81920652843604   -1.92958980455020    9.86994222746227
H         8.24707858105792   -0.33800855823960    9.36612907180989
H         9.11324568280048   -1.37326962526928    8.22277915234938
C         6.13977687053304   -2.09117701470112    9.83134420722721
H         6.57531510106336   -2.75319242931223   10.57478166785442
H         5.17211578500674   -2.48848228260295    9.53687489983403
H         5.99127546797905   -1.11275570190991   10.28361289384100
C         5.60032616799257    0.64905204034245    4.70498543167935
C         6.70010852498464    1.69631957858334    4.49583916649809
H         6.47830878288885    2.28869542040159    3.61216446048959
H         7.66950880188578    1.22389854138955    4.35803643851918
H         6.75237783912794    2.36252635805674    5.35395019231609
C         4.23722214051773    1.34251459665108    4.74481642674306
H         4.03792741542045    1.82483819965513    3.79177132750035
H         4.21479615808928    2.09862327018424    5.52695478359350
H         3.45052789393513    0.61831414254414    4.93874051288667
C         5.60901690803554   -0.36916293908104    3.55715726591682
H         5.33915963353219    0.12392195945468    2.62717331837110
H         4.88635327310553   -1.15744809612038    3.75536789983599
H         6.59322451393350   -0.81403386502127    3.43598116762868

