53
CSD_code = HANSAS | q = 0 | S = 0 | Stoichiometry = C20H23CrFN2O5Si | MND = 6
Cr        3.16239823784622   13.25068207432319   10.20208324549439
Si        1.75365794462451   11.34046464918668   10.74690543843610
F         1.99744822542332   10.21068515636481   11.93269971081564
N         0.98356774905244   10.15546819448441    9.53049074587103
C        -0.24231625269820   10.52251446545534    9.85930988471229
N        -0.10560673015176   11.34256372117446   10.88626562282851
C        -1.09351935479844   12.08706720365130   11.64118767174613
C        -0.33365332977752   12.83677029762995   12.73733285918456
H         0.32679117957591   13.58267973020618   12.30143901706183
H         0.26465327689016   12.14111042750712   13.31895907410511
H        -1.03344808736202   13.33691970752259   13.40131349229076
C        -2.09784018695373   11.12722503900976   12.29136698166743
H        -2.71608551603745   10.64024445049242   11.54204783896674
H        -2.74792249849647   11.67649013247006   12.96705421818512
H        -1.56693677652187   10.36731667970492   12.85934405031674
C        -1.82239129066258   13.09502790500730   10.74520170913753
H        -1.10223919765666   13.71544007655479   10.21683502824974
H        -2.45163073448305   13.73871989949382   11.35412790583942
H        -2.45224362585183   12.58844186293042   10.01830550289274
C         1.46087129865107    9.29779251772700    8.46443518569219
C         0.87592668059694    7.88818881627584    8.61835245292971
H        -0.19599086537559    7.88715522581954    8.43969145113956
H         1.06708952450709    7.51707236553913    9.62220672911948
H         1.34277067643367    7.21602135071667    7.90351629020422
C         1.10258455638865    9.87816379509322    7.09154582051515
H         1.59205810053120    9.30115085172846    6.31150063974509
H         1.43948756527724   10.90983111463194    7.02112684843734
H         0.02963970751207    9.84471936258481    6.92021655411325
C         2.98275634353738    9.22899226052674    8.60621514526452
H         3.39155029890265    8.51825527035728    7.89320578068038
H         3.25022982186852    8.91091759002125    9.60996764842586
H         3.42771521532015   10.20379045845547    8.42056891779142
C        -1.49653159921104   10.11699053952854    9.20676496528149
C        -2.18399815196395    8.98863201158561    9.64327024345413
H        -1.79039698413085    8.41137534335380   10.46660092290605
C        -3.36324040490481    8.61358745044739    9.02398192194413
H        -3.89196957664497    7.73725213273294    9.36722104115608
C        -3.86327321013111    9.35895483919725    7.96903863212175
H        -4.78312889682579    9.06420868339961    7.48748609312009
C        -3.18149656425799   10.48259270457657    7.53230199712108
H        -3.56791824750437   11.06555172891044    6.71004354638524
C        -2.00116516482683   10.86368822154557    8.14666065558378
H        -1.46697735946963   11.73929307193489    7.80775952794807
C         1.78687007033160   14.49803399034953   10.02456704685345
O         1.08369910116752   15.39560433637604    9.84282869523258
C         3.40720633287427   13.75172183015243   11.99181623299047
O         3.66599921793922   14.22273641176160   13.00948954490107
C         4.25110388935947   14.68099094752972    9.81929593393166
O         4.92337177436956   15.58239428839694    9.56501753064219
C         4.75624981514164   12.26643269896026   10.27319732538359
O         5.82714990771568   11.84505940795439   10.25741279966938
C         3.09749858559124   13.04629004569529    8.34911528317615
O         3.14807550925301   13.10282666297361    7.19701059835403

