135
CSD_code = HANWIE | q = 0 | S = 0 | Stoichiometry = C72H56P6Zn | MND = 4
Zn        4.83829227123067    5.54054335510216    9.38121867438524
P         6.09514287386353    3.49836743838318    9.64053516954228
P         3.11488964223001    7.03061536692553    8.58774333064500
P         5.27918334728846    7.53009809788444   11.05088703913358
P         3.24810943161503    3.97491532553191   10.93746005809710
P         5.97341020136391    6.56110433464553    7.18155184949534
P         7.74226993593534    2.62048480718657    7.63531914228376
C         8.08844712143120    1.26551157459689    8.81805544220515
C         7.05023761501992    0.39550078971451    9.12899809855118
H         6.09722814123781    0.52245149501528    8.63287079871473
C         7.23505884672541   -0.60410437473448   10.06567044348981
H         6.42331167942912   -1.27410853029328   10.31135724200814
C         8.46129023828954   -0.74207722437839   10.69527905165372
H         8.60644667229563   -1.51787056945716   11.43326938257889
C         9.50217021483917    0.11635864932066   10.38081427303525
H        10.45951542352538    0.00679070921204   10.87113374378608
C         9.31933222393021    1.12046623688419    9.44703839812735
H        10.13001779343192    1.79563676035917    9.20681212402885
C         9.03772519994262    2.33654032749053    6.36477996398020
C         9.71337147600890    1.13621477509194    6.18010332075211
H         9.53854714374968    0.30957383693667    6.85503601702324
C        10.61585939745308    1.00126558899138    5.13974239353340
H        11.14662962635668    0.06868834177142    5.00857666333099
C        10.84145268156431    2.05270953460771    4.26710423505560
H        11.55118013010112    1.94273966352352    3.45984378596194
C        10.14607492061005    3.24132443524670    4.42475679488093
H        10.30576096258423    4.06170861690264    3.73928542228578
C         9.24095619542674    3.37598546668458    5.45854705080413
H         8.68383706047651    4.29610313623720    5.58159367727495
C         8.53870976400112    3.94521419894884    8.61247263536032
C         9.77353813413435    4.54570068172664    8.44395389711220
H        10.40906912511574    4.27792939086612    7.61093738679001
C        10.19626190612784    5.49009373290318    9.36836587059614
H        11.16474846782875    5.95609368972395    9.25135508882704
C         9.39285737987123    5.83297591908920   10.44581030927640
H         9.73602510015166    6.56688680091279   11.16256979250208
C         8.14791897342487    5.24901705938245   10.60709451777663
H         7.52235770700205    5.51476851066495   11.45118452866401
C         7.71418434189571    4.30706252806787    9.68369592951020
C         5.81997466103498    3.12650752745972   11.37965553439624
C         6.86174308435815    2.61868469506493   12.16052593858361
H         7.85723096958771    2.56933025498251   11.73895953172896
C         6.63021644592993    2.17780531856507   13.44554800502615
H         7.44848292713684    1.79170565183087   14.03657162701571
C         5.34794776008142    2.21427396740435   13.97841338252605
H         5.16693056330211    1.85741358912318   14.98220699803307
C         4.30081301231925    2.70657929379509   13.22248773274018
H         3.30295172845339    2.74485999498545   13.63970269475660
C         4.52090083489025    3.15192097823720   11.92341804558562
C         2.98320566652188    2.80151729904347    9.56674411169055
C         3.44639117078836    1.48989484356247    9.58699263193561
H         3.99214634383254    1.12250025321447   10.44623005766212
C         3.20428371839129    0.66041283789036    8.50627917328648
H         3.56322661715923   -0.35925128597433    8.52100696529557
C         2.50161018767556    1.13000187181540    7.40873694705280
H         2.31667391164026    0.47608253541863    6.56863336309325
C         2.03815036382767    2.43563231849891    7.38659104880427
H         1.48980166346410    2.80422651114762    6.53233612358329
C         2.28397928673349    3.27170976783228    8.45882099333593
H         1.92891916262303    4.29553752638413    8.44677241807812
C         1.72823680248746    3.73174190841623   11.92109268811518
C         0.87940417053874    2.64106592226602   11.76823467304448
H         1.11896736379702    1.86771535255709   11.05208284985162
C        -0.26796791663004    2.54829040717273   12.53499149041845
H        -0.92341865065698    1.69745085867014   12.41673912625066
C        -0.58052413665415    3.53998453442296   13.45072219728508
H        -1.47947540931554    3.46257754240678   14.04460219247998
C         0.25662617636512    4.63377493536853   13.59881072286887
H         0.01266215066299    5.41313807856880   14.30616450692802
C         1.40281239757469    4.73218804490318   12.83335296729078
H         2.05286076646612    5.59100585123999   12.93624418821458
C         4.75038934606459    5.81454347298390    6.05704796358694
C         4.79827393139340    4.43108859843557    5.90835993627657
H         5.53965889270337    3.86141422052993    6.45740517964764
C         3.91391166072885    3.79340767250824    5.06060702193003
H         3.96417647975723    2.72132301075133    4.94058754219181
C         2.96326055923480    4.53141817988288    4.37275475728203
H         2.26631700603636    4.03449437964113    3.71292145177065
C         2.90262458847903    5.90619687554380    4.53027987489561
H         2.15799724835494    6.47947844887591    3.99677792236844
C         3.79515945925612    6.55312345131111    5.36693119004383
H         3.75327240175190    7.62792886353301    5.48234401778752
C         7.40807145756067    6.78022925503702    6.07664519120874
C         7.35932061323787    6.58192422229296    4.70144436257592
H         6.42639117724302    6.31324684105809    4.22653255374816
C         8.50818171840708    6.72791685420589    3.94354700142921
H         8.46504814230395    6.57694838768012    2.87442851169273
C         9.70893416879702    7.06096791726447    4.54864332612899
H        10.60332382151254    7.16980253517719    3.95257129375855
C         9.76420927495634    7.24894448101878    5.92067250781945
H        10.70131982323268    7.50013771238122    6.39600824700696
C         8.62040039993988    7.10486462353193    6.68138936997198
H         8.65453902544317    7.23779141981847    7.75445732474056
C         5.36207002754861    8.24715893607365    7.40984705511269
C         6.07466389170709    9.36092082737738    6.97756740274115
H         6.97657635312576    9.22548872189455    6.39645378147892
C         5.63909528415044   10.63691507172894    7.27799406849819
H         6.19550681412165   11.49346371484250    6.92690315582019
C         4.48660704001007   10.81326496508299    8.03033448308259
H         4.14120504768599   11.81010349797291    8.26443279893842
C         3.77211117837273    9.71914377463606    8.46733235902765
H         2.86288297528017    9.85911160247529    9.03766207134002
C         4.19636494842897    8.41714859530633    8.18319070528814
C         6.03465610936626    9.15445795151965   10.71976527539931
C         7.25232450308195    9.15436016347825   10.04781811235087
H         7.67277456850433    8.21042966072197    9.72350830170503
C         7.91067472624493   10.34459307208685    9.80399785420283
H         8.85590255016931   10.34206067878142    9.28091184970732
C         7.35264794877484   11.53925513044809   10.22798886076868
H         7.86470381174062   12.47122381735487   10.03862803106937
C         6.13601285402915   11.54192396680413   10.89081386047147
H         5.70147640768397   12.47599185860171   11.21635996404500
C         5.47254722754663   10.35406097903420   11.13745784189203
H         4.51883284356072   10.35687541800154   11.64607263651977
C         2.60123561505222    7.55549688349067   10.25578606817655
C         1.23498431887957    7.64825249341035   10.51875301390530
H         0.53993656808142    7.38964168591398    9.73111461494768
C         0.76677565123705    8.07398511669891   11.74628755286196
H        -0.29630637977604    8.14378275911155   11.92563523332722
C         1.66462497238263    8.42091314390223   12.74428646029687
H         1.30755196873774    8.77284724965360   13.70145630412608
C         3.02371498707004    8.29623684729466   12.52063089771440
H         3.72086424331114    8.52803528877060   13.31606479428443
C         3.50673325987911    7.85383613334278   11.29152145064294
C         5.84073269955655    7.21532402850901   12.75491308426326
C         5.25349119201388    6.14429255921222   13.42565338379625
H         4.44165771098755    5.60497478385620   12.95177902920112
C         5.69941518698842    5.76943979167966   14.67617825073527
H         5.23531892208545    4.93722725017245   15.18417521639722
C         6.75064716822077    6.45399289166713   15.26660789403563
H         7.10665432788191    6.15994175008565   16.24288023853563
C         7.34915019526566    7.50994629445785   14.59994459769162
H         8.17139680030347    8.04112398208536   15.05754497457942
C         6.90432842965297    7.88946458280295   13.34551615632000
H         7.37929069279645    8.71134099224073   12.82797929682881

