65
CSD_code = HANWEY | q = 1 | S = 0 | Stoichiometry = C19H41IrOP3(1+) | MND = 5
Ir       -0.32967955697474    3.44520566042733    3.17226800698385
P        -2.11263656345155    4.82859090491725    3.86537832906364
P         0.46368887779477    2.94618615118540    5.43098049141830
P         1.14784357685213    1.90294310792857    2.12129086762143
C        -0.80571530161631    4.01069686547820    1.24171779078047
C        -0.12584947785093    5.01219475551046    0.66921789510481
C         0.94086821126479    5.91135921576318    1.23558678243548
C         2.11752700976994    5.96846120659429    0.25071342214616
C         0.34085471743536    7.32025152545783    1.36304149079180
C         1.46070685702743    5.44419787155045    2.59835577720365
C        -1.82909174586263    3.35115131896993    0.44495449527928
C        -2.74759327657635    2.37194014936623    0.74365158063948
C        -3.49467364291041    2.13843482694501   -0.43182992505312
C        -2.98666231221413    2.98417756450386   -1.36843454778394
O        -1.98812189339563    3.71620108816646   -0.85411383758550
C        -3.26180512496273    5.41950487832926    2.57497361627010
C        -1.75443141872584    6.40643148191601    4.73567397370461
C        -3.30056829949421    4.03436745862483    5.01105789376457
C         2.25829241595893    2.60939609556457    5.64216427990062
C         0.27991341141950    4.18313252618529    6.77918493491334
C        -0.25999908465201    1.47912284229074    6.25981469053699
C         2.96565988872535    2.16945445882935    2.01253685461136
C         1.07039626299588    0.20683032166154    2.81600909885431
C         0.80132499110885    1.51592493767509    0.36990718201276
H        -0.38763964777439    5.27775979704680   -0.35081240663354
H         2.51424409084184    4.97177086286895    0.06464056931998
H         1.79951391237017    6.38664865517411   -0.70061632937046
H         2.91630706339875    6.59192557593849    0.64681652016412
H        -0.50337154691585    7.31921376606008    2.05013681915165
H         1.08678246908557    8.02522922689527    1.72474957155317
H        -0.01506926916624    7.66919630191045    0.39700563659964
H         2.18993446795481    4.64674096081303    2.47672916525067
H         1.95802371917262    6.26434790743487    3.11649728876566
H         0.62760360917386    5.12426672172377    3.25350472744306
H        -2.87260210627930    1.88039057752334    1.68673976968226
H        -4.29552985109149    1.44018799091165   -0.56014310978823
H        -3.24021845025500    3.15281027678010   -2.39607744420028
H        -4.04534919384252    6.02362655386184    3.03103666237182
H        -2.72634598098526    6.01130216171478    1.83663555067435
H        -3.70270932598586    4.56196281028751    2.07260219700483
H        -2.69418325321924    6.89832043736439    4.98363191559721
H        -1.19341151820172    6.23357108440705    5.64937806019116
H        -1.17467375391028    7.06290751778439    4.09027711348403
H        -4.09344219392088    4.73417648746506    5.27146835558360
H        -3.73159036644707    3.16741513688884    4.51504105633742
H        -2.79947708616511    3.70248408020453    5.91680783435851
H         2.47753731414529    2.40238157797584    6.68904272816506
H         2.56000634410494    1.75413656560125    5.04258525042516
H         2.83131060708175    3.48137817648465    5.32902263073792
H         0.72485691583488    3.79608731357059    7.69531070518292
H         0.78772802031275    5.10746283744157    6.50715034333328
H        -0.77176567891679    4.39192517973205    6.96223974719793
H         0.19947352456003    1.32702828070933    7.23567123057515
H        -1.33083244097170    1.62767556055128    6.38207869434310
H        -0.11159474672564    0.59516963654245    5.64475741623253
H         3.43936079085023    1.24247728255135    1.69177247327074
H         3.17326167510921    2.93871836052360    1.27104749977717
H         3.39200217307887    2.47219484706735    2.96547411443934
H         1.67059846458145   -0.46962243127439    2.20908121710599
H         1.43329515050317    0.18394808543825    3.84004946375342
H         0.03382108791247   -0.12339580794600    2.80356181075199
H         1.50551823996839    0.76340056884619    0.01655577607049
H        -0.21473162824411    1.13893150483996    0.28268359077152
H         0.89038200883682    2.41275961468308   -0.23809917885708
H        -1.31587213154219    2.29303074175564    3.19746381957761

