73
CSD_code = HANXID | q = 0 | S = 0 | Stoichiometry = C27H36BN6NbO2 | MND = 8
Nb        3.48750668582734   10.59669914343819    1.50698940605103
C         2.28362193688245   10.51098624577610    3.23197898808001
C         1.26859851342843    9.60097680654834    2.84807653141054
C         1.66132436381820    8.63013680335298    1.91967631129138
O         2.89690524844204    8.54068267002547    1.52475461502404
C        -0.14651249246073    9.61344072819069    3.37723267836571
C         0.71212826662748    7.55046122771195    1.44750311127217
O         2.14888777124520   10.86967613921765    0.34739443880320
C         1.09162873532087   10.88409382299122   -0.51025512097252
C         2.31638206847038   11.13496191505409    4.52602176390542
C         1.78688141367037   10.51425964197178    5.67450688574593
C         1.92203949765762   11.07952630814252    6.92512067833453
C         2.58821654058144   12.28428607801002    7.08775460214552
C         3.13582045831972   12.90658370285219    5.97505214684548
C         3.00964254851739   12.34396854355759    4.72336861950582
B         6.57747009361225   12.07278577978260    1.54920814451956
N         5.30233189131291   10.55069021743341    0.08082839840116
N         6.45341177035552   11.20056595898312    0.29374938270745
C         7.31414998243681   10.94744453583435   -0.71217329355041
C         6.67547420932540   10.09987386845411   -1.60068402379109
C         5.40596624436780    9.87451037764778   -1.05608127144550
C         8.68815778482113   11.51030800892541   -0.78219985362421
C         4.28559506073155    9.04454740000776   -1.57324943181474
N         4.16124930717722   12.73159759515155    1.42357039694939
N         5.45152796730674   13.11402172526984    1.48477781865244
C         5.53604374332251   14.45890534966309    1.45150850681654
C         4.24867720822885   14.95507488587602    1.36438123431740
C         3.41320740065649   13.83505242813765    1.35157598459137
C         6.81453902316594   15.21475593479214    1.51164394073175
C         1.92658661309081   13.80863854652370    1.30891056183133
N         5.26768187007307   10.31900778984580    2.82750227905115
N         6.33112965297316   11.15527324614126    2.76361874206152
C         7.15951321279558   10.92450120305340    3.79781157387186
C         6.62029749520648    9.89508040349155    4.54681015576549
C         5.43605281157894    9.54011077884487    3.89972849129493
C         8.41627181984761   11.67828707524107    4.04851058113317
C         4.49688007884164    8.45585481477841    4.28966268930398
H         7.63443757498182   12.58868440924642    1.61060287203411
H        -0.86076178483230    9.66256846756881    2.55313830930033
H        -0.30142302138281   10.47868711734712    4.01716280227566
H        -0.37038798157384    8.71142625807182    3.94900498551571
H         0.34270569551078    6.97134147519867    2.29327435108155
H         1.23474829313582    6.88285441335093    0.76520249714222
H        -0.14841482124279    7.98395495781459    0.93710354888746
H         0.17526758701632   11.21882983020133    0.00394243215338
H         0.91180043899809    9.87141916988216   -0.90950083929747
H         1.27930464586410   11.56038069987762   -1.36151262908343
H         1.29447513880725    9.55796255662004    5.57712998211167
H         1.50709466133581   10.57464415677413    7.78729495245710
H         2.68740233459224   12.72706564551199    8.06807978854727
H         3.66870747546134   13.84086375850317    6.09182893752847
H         3.44571908894161   12.84023667227227    3.86531236464850
H         7.07417132951656    9.69855857200342   -2.51073309319151
H         8.65787812867161   12.59860033650514   -0.79902246655336
H         9.18084762062379   11.15777246761105   -1.68426337418056
H         9.27327944263065   11.20255871046842    0.08285406230668
H         3.73417696043473    8.61369271581863   -0.73380696065889
H         4.66457959110083    8.24733594922569   -2.20929845252885
H         3.59906327140600    9.65787901559484   -2.16054220907060
H         3.95386787965817   15.98401762719861    1.32167733552845
H         7.35173527002592   14.98974792962103    2.43101194972709
H         6.60612442691930   16.28056927706796    1.47737731481824
H         7.45741402103528   14.95413287465023    0.67280958366483
H         1.57517689143880   13.69828056796221    0.28223829988646
H         1.52937419588623   14.73912043879488    1.70913983497666
H         1.55475881914515   12.96370790089703    1.89573122767354
H         7.02638286905418    9.46151590959110    5.43804014639278
H         9.13412396645751   11.51446547747639    3.24668483028738
H         8.85489390607983   11.34543414466762    4.98516013740900
H         8.21588424875830   12.74576378417385    4.11138915344508
H         3.74226892101373    8.84414955543127    4.97367801481584
H         5.04321833092025    7.66007922194158    4.79234289544835
H         3.99451778603276    8.05757023434335    3.40838075093072

