45
CSD_code = HANZIF | q = 0 | S = 0 | Stoichiometry = C18H22NbO3P | MND = 9
Nb        2.52917040875926    0.89329205412702    3.26890978982949
P         2.42254180550019    2.49092603292441    1.33170158729037
C         4.35391986510330    0.35185255119808    2.61321515974055
O         5.52447671278558    0.32978128782384    2.38699808082376
C         2.16327156057011   -0.60672408972830    1.97178062388519
O         1.63067340477836   -1.36765421344839    1.21858613553278
C         3.45158510181821   -0.93459110009752    2.80611896282102
O         3.89751717034512   -2.03909067172291    3.02528993317078
C         1.34459900717444    2.27409777968897    4.56528910163206
C         1.37960689635433    1.02161111197565    5.26619759773903
C         2.54022482422608    0.36743051975978    5.66211351470291
C         3.89984625909479    0.86677149334559    5.87718151961196
C         4.30482228937559    2.14352807157569    5.92020317007766
C         0.08247760535736    0.24945538945552    5.35459766122719
C         4.90702467471655   -0.23613043288732    6.09040335360965
C         3.42064783473524    2.05246139945213   -0.13657155671106
C         0.76842286096218    2.75039013256017    0.59830536264996
C         2.46739089945397    5.33676058465260    1.39048541863563
C         3.03186134578249    6.53807458908550    1.78683220477805
C         4.18669123361868    6.54868567370909    2.55044504072662
C         4.78351831435528    5.35373280894452    2.92446638532161
C         4.22286276542985    4.15157508138212    2.53645173126147
C         3.06369275919157    4.13825698862925    1.76133816506393
H         1.92835770604701    3.09628214028032    4.98080384715793
H         0.32711910237246    2.62916753494015    4.36519982211914
H         2.39919107461729   -0.63951672360882    6.05677435960918
H         5.34202972225989    2.37620905419567    6.10019658022897
H         3.64566496178714    2.99380158160154    5.87127198156795
H        -0.55126001505673    0.43493320073846    4.48227780172191
H        -0.46696361560352    0.57741419953856    6.24047385878022
H         0.25132578735815   -0.82561005212625    5.44149177820093
H         4.87062237171525   -0.96480808364424    5.27875090089003
H         5.91600799025554    0.16426056230761    6.14929205858258
H         4.68897960019795   -0.76342219033139    7.02023621761695
H         4.46042270001460    1.93618151749130    0.16850345501077
H         3.33750020839429    2.82937276291696   -0.89758769213642
H         3.05489777833246    1.10025525236310   -0.52214442470826
H         0.82628077647298    3.35868430042761   -0.30435884315622
H         0.37889478481593    1.76131011420355    0.34974009161956
H         0.11255303510354    3.21748901756083    1.33229479997177
H         1.56358244939209    5.33930592991734    0.79956988318721
H         2.56597106449143    7.46935751837969    1.50008957553048
H         4.62032518806526    7.48835601339424    2.85832423329107
H         5.68251587101766    5.36266600707771    3.52234847285220
H         4.67373585858391    3.20621730006141    2.82941229847353

