47
CSD_code = HAPBEF | q = 0 | S = 0 | Stoichiometry = C17H19FeNO9 | MND = 6
Fe        1.88108551597055    0.71628382788265    2.08645937456985
O         2.38055023583114    3.93075569165126    1.06419759995780
O         4.45461915404411    3.19144559943195    0.62044703330495
O         1.22162661899333    4.44302547278255    3.87521246463655
O         0.00103948186798    3.15774042717320    2.50848838667217
O         2.08389083161299    2.33193015669968    5.76391049072073
O         3.97777743986965    1.97243087025605    4.63260639565202
O         2.71721690984860   -0.38089765156390   -0.48083502829661
O         0.19067253806073    1.92165123693137    0.08199531392771
O        -0.69939271362523   -0.32557044780589    2.98716528413610
N         3.26761345657567   -0.42151065738061    3.08486041545827
C         3.12584585107608   -1.83409173565648    3.47120037790521
C         2.41595521096697   -2.59819374782113    2.35234139157587
C         2.26513048971095   -1.82756067960295    4.74082209114941
C         4.45782644995878   -2.53576123445908    3.76152121050529
C         4.34586041651146    0.19726374593193    3.33458319382025
C         4.36779808912890    1.70489594763873    3.27039171668956
C         5.74311696989373    2.28795146255231    3.01057485530312
C         3.19989933768490    2.21180084744488    2.40809718731677
C         3.45174706928876    3.14152968828335    1.29357369957686
C         2.46036937121127    4.79000575045383   -0.06259670472264
C         2.09042130672152    2.33876129914427    3.33699722153434
C         0.99383627400403    3.34162687672223    3.17845856118398
C         0.20784261388654    5.43874654847657    3.82527191590643
C         2.64220348224174    2.22735445854421    4.70798340612083
C         2.42603959088930   -0.00092640694916    0.55820438148004
C         0.81218974144257    1.57614576542745    0.97318414354408
C         0.35457853281071    0.00019244603826    2.69306655186366
H         1.45386316433749   -2.14635380327459    2.12405864471370
H         2.25164700299828   -3.62730192598091    2.65930373950072
H         3.02329895317579   -2.59881475191523    1.45086983761157
H         2.09510506765710   -2.84569120557967    5.07931519906547
H         1.30583497229604   -1.35706233400948    4.54495134731001
H         2.76047155155034   -1.27124590331127    5.53370575274937
H         4.92573455724890   -2.16242842379430    4.66923021677068
H         5.14543526746177   -2.42688046263528    2.92538136025465
H         4.26768950104381   -3.59578334098681    3.90573184109342
H         5.21691652818057   -0.26551819131131    3.78703277597464
H         6.05847351785206    2.05313494115928    1.99876294324393
H         6.45329290482436    1.88400666146926    3.72815873791512
H         5.71146077337951    3.36819984567055    3.12246433798721
H         1.44471802224273    5.12304706599169   -0.26158262516859
H         2.86419676584079    4.24944959491314   -0.92076764757688
H         3.10755182536743    5.64219570347013    0.15660251838396
H         0.57217369980750    6.27209209896847    4.42015908393095
H        -0.72255372041367    5.04785032697929    4.24077765610890
H         0.03342937867210    5.74497854594922    2.79196134863909

