99
CSD_code = HAPCUY | q = 0 | S = 0 | Stoichiometry = C42H44B10NiP2 | MND = 4
Ni        7.00305169527678   16.48692189232494   16.57773679707591
P         5.27986673300410   15.68211199250146   17.74578626238740
P         5.45165501436276   17.36335146889018   15.22702387811666
C         9.98096820555986   16.96350713443497   16.41710376418034
C         8.56393867036347   17.38736788066875   15.77531172872665
C         9.70331002515318   15.93367233738396   17.43834842344408
C        10.80914256494830   15.30643875339155   18.19599085221557
C        11.43598318893493   15.99773357146460   19.22581042046123
H        11.11127135864513   16.99832977125049   19.47085486413961
C        12.46130308045232   15.40622347578846   19.94078273626081
H        12.94246666372706   15.95030474761901   20.74091902987443
C        12.86994762908695   14.11924411197027   19.63560808124924
H        13.67087118709686   13.65806849464222   20.19507598228587
C        12.24743868564732   13.42441024907196   18.61260488262612
H        12.56273209101216   12.41925165917610   18.37213981931613
C        11.22187525181867   14.01370676516241   17.89697130290920
H        10.73550519302093   13.47379732546307   17.09808358451835
C         8.41617680209247   15.57677463695165   17.59227709307326
C         8.09939992785814   14.50625912435492   18.55552879320895
C         8.12241020663372   14.74946622561992   19.92820583922936
H         8.31123303377947   15.75232614229112   20.28482880987292
C         7.92933749389357   13.71717694786515   20.82561908541795
H         7.96065318676250   13.91683553154783   21.88772200206993
C         7.71006585605554   12.42745884698188   20.37139422333953
H         7.57251489340235   11.61956298053279   21.07521571964185
C         7.66732140977155   12.17746914344180   19.01007714015308
H         7.49235927181872   11.17301140889465   18.65125786473063
C         7.85074686123776   13.20784578812248   18.11012871528469
H         7.82471640192326   13.01181758787042   17.04644601533615
C         5.10581724968479   16.84287112202412   19.14042020849209
C         6.10375478596941   17.80028908208131   19.28275819305367
H         6.94737849107975   17.78363353262024   18.59202179499121
C         6.02787760978208   18.75616445825699   20.27924784049729
H         6.80776067587016   19.49643705247138   20.37983777815599
C         4.94690295042701   18.75908422888554   21.14480266554521
H         4.88211350485694   19.49963970733326   21.92823807764284
C         3.94276172320556   17.81305205337023   21.00455764793180
H         3.09785749166609   17.82017511550307   21.67810615442502
C         4.01515217602906   16.86046904045504   20.00486016509346
H         3.22622132889450   16.12767082143021   19.90160459930429
C         4.83956861254067   14.05795669331514   18.44393548398994
C         4.81081814643216   13.78599687012354   19.80538457916937
H         5.05669506193615   14.55943950829742   20.51764533381106
C         4.48125277043393   12.51867416344384   20.25203932998435
H         4.45345641143731   12.31743235091127   21.31284634033458
C         4.19637667841736   11.51035677410881   19.34820808791133
H         3.94034099135306   10.52250576519114   19.70157354592712
C         4.25568750710866   11.76664971968238   17.98765199719504
H         4.05239673573346   10.97755305409498   17.27819467577789
C         4.58083883812719   13.03110846461959   17.53849861421644
H         4.64693714271673   13.22595635000622   16.47538882635666
C         3.68005989263340   16.05430572080876   16.86920099090158
H         3.48983690270482   15.25372505458339   16.14853417707176
H         2.85276263274840   16.07162326062270   17.58435492120386
C         3.82983576501881   17.38366994855455   16.14760599279516
H         3.86195157749979   18.19875761832820   16.87710708835967
H         2.99823592715081   17.57036094615689   15.46227920900603
C         5.10880605814789   15.93734348249085   14.13842267414500
C         5.95010405458978   14.83650084994525   14.26176982826978
H         6.80221093350171   14.89420536302583   14.94418745066255
C         5.71688605362541   13.68714365535837   13.52847540726890
H         6.37390949478838   12.83590508521758   13.63014350206463
C         4.63690657494647   13.63264253559390   12.66284676417384
H         4.44950667488665   12.73836285800082   12.08705483453128
C         3.79509068222109   14.72671686454663   12.53267017406369
H         2.95413219941527   14.68193937288421   11.85583540534375
C         4.02556901695465   15.87519509761780   13.26783003778202
H         3.36691462394834   16.72650137124192   13.16204840928067
C         5.19030522825668   18.79697948638883   14.13351395382137
C         4.86425610119634   20.02142878929362   14.71019374320008
H         4.74763162829745   20.09589632778439   15.78286216944086
C         4.70173000666645   21.14556737667690   13.92338392029561
H         4.44542420609191   22.09010463541550   14.38034042215580
C         4.87706935196581   21.06251246396910   12.55174743206863
H         4.75365483674519   21.94134971710965   11.93683900250263
C         5.22136298064624   19.85277584074232   11.97350826445808
H         5.36999456680028   19.78635301131646   10.90599004941211
C         5.38325677638774   18.72589409650466   12.75890307561064
H         5.66140849228467   17.78832480000849   12.30020019481992
B         9.39177134729435   18.53310003026268   16.78167726076754
H         8.97331474811157   18.70573423382109   17.86793514765784
B        11.10666777707457   18.24100386341020   16.47382556400202
H        11.86070251579842   18.28561093150843   17.37488254520283
B        11.25489272509046   16.95085811876168   15.28354134746941
H        12.09720108735177   16.13929164398674   15.41331127182352
B         9.63951322711647   16.41982468579989   14.81669073767220
H         9.36734196932461   15.28235469319471   14.69203481536847
B         8.62445722745523   19.04337744501155   15.29724744522018
H         7.63139675772155   19.67845555806049   15.35066880530240
B        10.25911525094177   19.61975835606214   15.71837603996192
H        10.46464026159990   20.73443110566431   16.03893708182444
B        11.42406342648121   18.64389045710258   14.77607064740141
H        12.45947197105647   19.08715186251319   14.43088095406903
B        10.50580701922174   17.50351189149651   13.75494463306370
H        10.88234108675502   17.13674819949093   12.70100138080538
B         8.77401452634445   17.75850595379002   14.10746423331490
H         7.87274936894431   17.53139091355690   13.37891797342472
B         9.87861584730362   19.14952790437524   14.03981539152190
H         9.80357915185460   19.94572459802757   13.17415197846345

