66
CSD_code = HAPCEG | q = 0 | S = 0 | Stoichiometry = C26H34NOPS2W | MND = 9
W         2.40287325613155    9.60569192660225    5.59590152190604
S         1.88391616814787   11.12848558793155    7.59725007642080
S         4.07812930436806    9.16272809894789    7.51340941900954
P         4.47924161034290   11.79974629576377    8.43600858694296
O         4.86854164943033   10.37017415072693    4.15106630127861
N         3.85416880406466   10.11624404700943    4.73945410494029
C         2.25407657800402    7.32979350943878    5.39018630397570
C         1.68882590189071    7.88336741248329    4.20042449328230
C         0.50561294846676    8.60290664025695    4.57012461096693
C         0.34635692046442    8.48866501613473    5.98484135363439
C         1.40534425484177    7.70325079595647    6.48884125011930
C         3.38023492364236    6.34154097570526    5.45475120801702
C         2.13312080486220    7.59436922479063    2.79613723600588
C        -0.53061952189456    9.10446794139101    3.61121679887443
C        -0.83122309211362    8.95716460698657    6.78552163781403
C         1.49511836307039    7.18425929796755    7.89262000716326
C         1.44759630328097   11.24368068857585    4.51816684222765
C         1.78227955486838   11.47701859849246    3.18147296106061
C         1.13212702952980   12.42753297988859    2.41116386804517
C         0.10650939217168   13.18105391685291    2.95460576778097
C        -0.25117571462195   12.97397969534559    4.27427335610333
C         0.40955539268188   12.02060386843941    5.03257600460199
C         3.26957856651596   10.42972343447244    8.54304073522328
C         4.81295769534668   12.30012032958589    6.73797125035012
C         3.85676919823145   13.26411932464621    9.31221049598959
C         6.06566066071290   11.33783127944391    9.18689901522620
C         2.99102539860593   10.05823957420155    9.96243560710230
C         3.77861793388952    9.10939795945695   10.60462098534657
C         3.52544652984784    8.77306982000541   11.92152541789967
C         2.48520854618518    9.37775208460304   12.60766567561494
C         1.69308029105124   10.31677395395151   11.96859371229034
C         1.94315919588845   10.65759648418040   10.65193939177627
H         3.98946213914334    6.50152227147225    6.34453373910917
H         2.98780944556043    5.32260125864743    5.48734886258815
H         4.02521721449456    6.43406094083372    4.58301317928473
H         1.71806464166183    6.64242430665865    2.45731584868656
H         1.79582212095906    8.37477787315341    2.11667399362116
H         3.21902876953660    7.53557612122741    2.73533192968245
H        -1.14339625024173    9.88429464126420    4.05846578372312
H        -0.07407625848765    9.51455264393215    2.71234150701904
H        -1.18333852327702    8.27824051392545    3.31940372648322
H        -0.51509674881498    9.36117975233774    7.74819363147513
H        -1.38184502985547    9.73222815971048    6.25656261222696
H        -1.51038530276316    8.12300659856352    6.97657057056849
H         0.82114984443580    6.33289650725132    8.01549514161195
H         2.50610118205395    6.85757695351785    8.12981809560082
H         1.20528665534761    7.94791524686968    8.61683361812160
H         2.58054198421626   10.90420336134687    2.72156407988759
H         1.42671449780904   12.57896260103649    1.38128928723842
H        -0.40714043622842   13.92094566741539    2.35683088536247
H        -1.05061152852392   13.55373419095956    4.71676925831534
H         0.10070296229255   11.89329150211726    6.06610216215482
H         5.38943448327799   11.52454867229668    6.22765730334450
H         3.86776342301268   12.45465698182164    6.20344725562150
H         5.38641647125520   13.22744008356638    6.77321162075067
H         4.58003023063038   14.07383977592020    9.23388829998146
H         2.91650649244125   13.55830700323818    8.84505392693378
H         3.68343740251126   13.01823882328116   10.35929770550751
H         5.92850733419514   11.15000294952053   10.25122034306864
H         6.41178504186691   10.42881150833811    8.69376916480146
H         6.78799879427132   12.13862478730999    9.03763225967820
H         4.57214651536573    8.62598678640196   10.05375841246165
H         4.13952295396197    8.03187614813938   12.41140787183642
H         2.28671743059487    9.11099682459849   13.63505299853044
H         0.87307468212781   10.78338500516234   12.49431937776956
H         1.31793251726340   11.37464401795932   10.14000954993913

