85
CSD_code = HAPDOU | q = 0 | S = 0 | Stoichiometry = C44H30FeN6O2S2 | MND = 6
Fe        3.76690445560296    0.04688894416167    3.83615129034681
O         1.58994650997417   -2.91500593823253    7.29576773409633
O         0.73039595086953   -3.95323104560617    3.10573382159137
S         6.75413091793635    2.45475229275697    6.30693455028202
S         3.98073192440238    1.95548191883454   -0.30412958869718
N         4.96096938822501   -1.08168905093708    2.64823448664647
N         2.38929743214439   -1.00662247532173    2.76065329278661
N         2.76190171210268    1.42855074102375    4.92772647841760
N         3.70022546036718   -0.85464335860072    5.65626274454341
N         3.75064820520492    1.28527005568457    2.36176518983005
N         5.35078829139302    0.92343767873966    4.49241414381526
C         6.27668747472544   -1.19729645150925    2.63936050897617
H         6.78032897825459   -0.96447967992635    3.56594381472416
C         7.00062197344030   -1.55958355205765    1.50151978465678
H         8.07583031255149   -1.62498749144528    1.56238615293848
C         6.34835581960953   -1.80177166792697    0.31195222165145
H         6.89406946904480   -2.05168707579022   -0.58570943631738
C         4.94889351326665   -1.70029461169511    0.28194761984311
C         4.31283137890245   -1.35396913049785    1.48872497882950
C         4.13493772017320   -1.88737086745939   -0.87336137238429
H         4.62771498765445   -2.12209846420329   -1.80543001171263
C         2.78350259030276   -1.75086617671751   -0.82701568476981
H         2.19182306303038   -1.87388709620004   -1.72249786760303
C         2.10925834966485   -1.44193776781920    0.38830367359636
C         2.90028887759496   -1.25557386562358    1.53723336183643
C         0.71678729221821   -1.26267998983738    0.52870211410160
H         0.08174663336512   -1.27205888151226   -0.34551985352203
C         0.19121569376914   -1.11210705329474    1.79306997924848
C         1.07696987876434   -1.11906937670591    2.88602339781988
C        -1.26087563132018   -0.94324313181067    2.14098951894697
H        -1.70110792380611   -1.92865012476125    2.32478855080293
H        -1.79578973966314   -0.48274289741757    1.30874298432116
C        -1.41311911529104   -0.08812839270365    3.41221104684881
H        -1.00872921536740    0.91054479808344    3.21932064818335
H        -2.46883394334057    0.01801185278194    3.66629179963035
C        -0.66327680159144   -0.72566274366360    4.54928728257000
C         0.56034212569808   -1.30815096365187    4.22348512516748
C        -1.08999478426694   -0.81385972449648    5.85825307591241
H        -2.02336645877794   -0.36409231856533    6.16391118319290
C        -0.31542631535500   -1.47979486638678    6.80115666320377
H        -0.65935232932697   -1.50332891246909    7.82323089072169
C         0.83882539001653   -2.16478225347321    6.43616646392035
C         1.27538822816404   -2.12199942820561    5.10042682444613
C         1.26360848388100   -2.90473586749342    8.66291792125067
H         2.02509849507562   -3.51161347663610    9.15061836553969
H         1.29431908005973   -1.89096604097315    9.07572822524227
H         0.27918890199423   -3.34634719373960    8.84906382465038
C         2.19951405656753    2.56170661466461    4.54816627100114
H         1.91326683728489    2.62506907255034    3.50872635053913
C         2.01080139840772    3.64325141800912    5.41114699456051
H         1.55363596260619    4.54389440995972    5.03181966055612
C         2.42999850449473    3.56685495752402    6.72174371965552
H         2.32031062934292    4.40408224653200    7.39487842953505
C         3.02408057556100    2.37602532085759    7.16745386162717
C         3.14513256930803    1.33755074587273    6.22521635363568
C         3.53835892866480    2.15280505408326    8.47808440308011
H         3.47331494364948    2.96187446187891    9.19071105286473
C         4.12043418287011    0.97543285530436    8.82783415964974
H         4.52439450926377    0.84035481819581    9.82065409412326
C         4.21918685771741   -0.10681140520523    7.90810631899943
C         3.71516245812595    0.09930616885091    6.61065167676130
C         4.81959327490209   -1.35544381541910    8.17499522191135
H         5.33145316481527   -1.51770776518062    9.11264217252120
C         4.70603396477278   -2.35934007859697    7.23857447222623
C         4.01774450483704   -2.07979491170543    6.04375674065891
C         5.24403582338297   -3.75695810275625    7.36347763169748
H         4.48014497323213   -4.39481931119337    7.81982487492641
H         6.12243717698667   -3.76427997105247    8.01096831376707
C         5.59869099199256   -4.32310181198051    5.97659928861162
H         6.39100541495516   -3.71069908993420    5.53471989710193
H         5.97401599075138   -5.34284865136434    6.07423283960559
C         4.38476757836140   -4.29489586578359    5.08964662190484
C         3.56830895613248   -3.17121817785540    5.20801137645681
C         3.99597413365463   -5.28499474823487    4.21136020914269
H         4.60407290457970   -6.16698705777125    4.07277853887932
C         2.81508117714273   -5.15334843890721    3.48988067237173
H         2.55385966386002   -5.92922398112637    2.78760590279951
C         1.94770945569779   -4.08877725428335    3.71067290946469
C         2.30438159897413   -3.08352402049192    4.62689011933791
C         0.35822231634709   -4.88406468225675    2.12048558129550
H        -0.61343040594752   -4.55318206742457    1.75654888698791
H         1.06890324175214   -4.89367086051386    1.28745194253719
H         0.26220742178198   -5.89427366438744    2.53157359241007
C         5.92482300431672    1.60662306950619    5.25803996721991
C         3.88546855749750    1.55930564287009    1.22623095945880

