73
CSD_code = HAPGEK | q = 0 | S = 0 | Stoichiometry = C16H44B8NiSi4 | MND = 10
Ni        0.00000908383615    7.39185865869301    9.73207638420292
Si        3.35854620839909    8.75764863334544    9.25321168112576
Si       -0.46521095096874    4.57403044220549    7.23374969892681
C         1.69714443468080    7.98171819325652    8.82030532659430
B         1.43997191325401    6.42641021330225    8.74162739481136
C         0.08341189888560    6.20917076832648    7.98819048373781
B        -0.64751240451069    7.55825874643517    7.80644632804921
B         0.43524453529377    8.76346027935371    8.34926853404554
B         1.03812549867704    7.46853283881595    7.34073910521767
C         3.07496419064597   10.33335282717643   10.29736898969413
C         4.46418977806965    7.53724353679757   10.22596060480774
C         4.24218830590150    9.22045376752234    7.61890264292339
C         0.71119715986685    3.14984474632893    7.72940094859695
C        -2.24617834042520    4.13397592229662    7.77209504257831
C        -0.43165779350123    4.75336021370700    5.32774918193667
H         2.23166584286812    5.60124911925410    8.98039424095398
H        -1.69683723358517    7.69879372346680    7.30558827938413
H         0.33714013606130    9.92784190225696    8.28418887942224
H         1.56814611449490    7.49178428820123    6.29469996022007
H         2.51285440870643   10.11275754390744   11.19842234854167
H         4.01669073169614   10.78435766559691   10.59548619560422
H         2.51822062347026   11.07878119643335    9.73925764423325
H         3.99627393606848    7.23708014695393   11.15737151326035
H         4.66229913165643    6.63718983326540    9.65313455136445
H         5.42255492119956    7.98549997542202   10.47063741665015
H         5.19756485456993    9.70210942152507    7.80343013820852
H         4.42979481771645    8.34093630772845    7.01096631692107
H         3.63820383119936    9.90122256107431    7.02757764840517
H         1.71656077472665    3.32440446351868    7.35930142767009
H         0.77359024806113    3.03835233536368    8.80687613318662
H         0.37377409589035    2.20158010977505    7.32144750706808
H        -2.28636311499282    3.80808239641892    8.80568481421242
H        -2.91105290748448    4.98515526746172    7.67193703444427
H        -2.64806193421453    3.33036658228233    7.16196657480402
H         0.56228070010837    5.01138769349543    4.97588348973095
H        -0.72778576885232    3.83425865505711    4.83098475863834
H        -1.10529366600118    5.53798306411559    4.99843152312494
C        -1.69694496774305    7.98249107186152   10.64370892299187
B        -1.44020127668216    6.42715489722403   10.72300038753966
C        -0.08357604984743    6.20980447978478   11.47628232781964
B         0.64768381668746    7.55875781915033   11.65757514610549
B        -0.43482076487790    8.76407918408073   11.11435968954547
Si       -3.35815868829652    8.75860151695244   10.21039125358073
B        -1.03789056722779    7.46970744443314   12.12342967096076
H        -2.23215509812251    5.60213755566634   10.48465086308850
Si        0.46474570709563    4.57462632064560   12.23086920772997
H         1.69709226914009    7.69923697917100   12.15826579815233
H        -0.33632296722474    9.92844842842434   11.17897319504707
C        -3.07405891952390   10.33440760294017    9.16655751326293
C        -4.46343178001583    7.53835455542359    9.23700804223638
C        -4.24253743947940    9.22120800660552   11.84435367660373
H        -1.56778688359691    7.49347188199931   13.16951354492088
C        -0.70744209992083    3.14902966917738   11.72941020159851
C         2.24812919974199    4.13766379896521   11.69806043264048
C         0.42426628899763    4.75177019870894   14.13693057172052
H        -2.51112537122140   10.11398043036202    8.26598405908452
H        -4.01560218533885   10.78524911034041    8.86765101516040
H        -2.51795155098424   11.07991867296421    9.72517815249596
H        -3.99496969432756    7.23801305538955    8.30592597005704
H        -4.66211876536706    6.63840391420988    9.80979853668880
H        -5.42154020888373    7.98678535637466    8.99165147032057
H        -5.19775070898408    9.70303789211504   11.65943554856501
H        -4.43058165011040    8.34160923520191   12.45203562714565
H        -3.63875955302843    9.90178290903382   12.43610956616338
H        -1.71478014591860    3.32205603712120   12.09480852739750
H        -0.76453411644240    3.03772423888955   10.65162770844733
H        -0.37060829760942    2.20113866905924   12.13871843112574
H         2.29240317648982    3.81455323626950   10.66376227518085
H         2.91183575595933    4.98918498038743   11.80290574879831
H         2.64854275124256    3.33282060071496   12.30752333617727
H        -0.57145714583794    5.00713452839563   14.48567058038766
H         0.72077874742562    3.83279850163735   14.63369664522005
H         1.09497512236896    5.53756318018916   14.46941561274006

