57
CSD_code = HAPNER | q = 1 | S = 0 | Stoichiometry = C25H25N2O4Pd(1+) | MND = 4
Pd        2.45164819443109    1.27952820056022   17.70388140254850
N         3.57779421107353    1.52810411580271   15.87182958728193
C         3.20882977484039    1.65607212311416   14.60931105877392
C         1.93192676490089    1.01091978637284   14.19375800934830
H         2.05664291064755    0.48586460217385   13.24922418983312
H         1.15896967284327    1.76773621890510   14.05819048414323
H         1.60160208503670    0.31145751060173   14.96466259121615
C         4.00886899556548    2.35770771302386   13.68550522118718
H         3.66713369752204    2.45290208878350   12.66687771507882
C         5.20714107045385    2.89420346030236   14.07746518467301
H         5.83487328630638    3.42539704969023   13.37823173968512
C         5.63682770741881    2.72451298404799   15.40843727038514
C         6.89664527706219    3.16773193975905   15.89947357077181
H         7.53947699795963    3.71788668308894   15.22972206326502
C         7.29895346798513    2.87357066016675   17.16211260619694
H         8.27204558155193    3.17789128778972   17.51539379833157
C         6.46430013124801    2.13454278382779   18.04658245578169
C         6.85738468265130    1.70552572198184   19.32973699574149
H         7.82900928810499    1.98153653309573   19.71017445799723
C         6.01645740911783    0.90005822457914   20.05165804603849
H         6.31586862985835    0.50485997949069   21.00895173735201
C         4.73242394563657    0.58835720810738   19.56437451185448
C         3.85385924466719   -0.36328132948230   20.30104746818614
H         3.56265073948697    0.05878890052899   21.26072940992159
H         4.39780681941241   -1.28765163615251   20.49001662232365
H         2.95497483215312   -0.58117586604419   19.71128836264217
N         4.31039616324397    1.08872691490812   18.41471921097535
C         5.16956029476052    1.77552258455127   17.62519332383874
C         4.76264703637863    2.04394832708353   16.27883076353876
C         1.40174708302520    1.54603444717353   19.39943778062358
C         1.80810529342358    2.08645216683664   20.60584228896483
C         0.93330134196664    2.24104762023619   21.70239038555705
C        -0.41664951149819    1.81922500544972   21.55351938242380
C        -0.85665774592974    1.38383138679778   20.31895983167589
H        -1.89483309408701    1.13696236627877   20.17291154986108
C         0.02542546099711    1.27620020010203   19.23427625525277
O         0.52959469812352    1.21225684443369   16.98059959884665
C        -0.34668028935573    1.06347625985228   17.86165468790843
C        -1.75293360952491    0.76118957146308   17.45094944211920
H        -2.40155828671451    1.59356104391826   17.71821254187307
H        -2.11205491916509   -0.12648584118942   17.96707926581541
H        -1.80207213847141    0.60460496919097   16.37649427544708
O         3.12497124882169    2.51346087161407   20.75375416499613
C         3.38552026386336    3.71723229650745   20.05760043175732
H         4.45393618087890    3.90452519890606   20.15241157466939
H         2.83016904325768    4.55251179819018   20.49613217264671
H         3.11058183352683    3.62493029295626   18.98546050217845
O         1.50361014790058    2.78950184620517   22.78271123282450
C         0.80478817967555    3.02586014003588   23.98974182228051
H         1.54092650855785    3.47847767462176   24.65297998822360
H         0.43664518272934    2.09819715971489   24.42909792138461
H        -0.02860007910399    3.71445252708677   23.84378433154693
O        -1.22359160418349    1.91114590720454   22.64825827877465
C        -2.57037054570824    1.50845507770359   22.54144103998896
H        -2.98736486727420    1.63459881309933   23.53879830347715
H        -2.65272165012090    0.45890920617191   22.24486350588782
H        -3.12365303793556    2.13744037876203   21.83785758408998

