42
CSD_code = HAPPAP | q = 0 | S = 0 | Stoichiometry = C17H13MnO11 | MND = 6
Mn        8.94480588838545    3.25993578892588    5.25665340810171
O        10.34490829260518   -0.74811398008010    5.79559360100976
O         9.14489400460970    0.13903915792037    4.10558239714080
O        13.93870873941623    6.06139455041499    9.80407948863986
O        14.78641142928284    4.25525687347497    8.79278795835364
O         9.64044133351476    7.97901138025242    7.86633314122403
O        11.25195696834580    9.50996525512553    8.18861369986143
O        10.45994016363223    4.06089934619084    6.37016224771530
O         7.39418948417552    3.03749924548322    7.74535626570439
O         6.77096629674824    1.95556191296614    3.76544983149742
O         8.22820433776791    6.00076118445920    4.45277869882397
O        10.85754793013093    2.44754894657195    3.17388036656872
C        11.17805960459782    1.87874207076264    6.41698980332826
C        10.08487738838728    1.62305443387588    5.64042605936856
C         9.89096408663691    0.20657702238559    5.21499468201063
C        12.44282221965205    3.67538051467152    7.62497551160571
C        12.60792973182828    4.90446407131268    8.17890642099042
C        13.82627390541587    5.15884333377742    9.01569547929284
C        11.64566415853855    5.97267890851715    8.05688016188442
C        11.89783220368133    7.28027036863567    8.20197166591402
C        10.79695643230823    8.25665665919622    8.06571183065087
C        11.33042428079888    3.26329131391933    6.79128132311888
C         7.96259297439281    3.15881596583546    6.76462372754779
C         7.61902954750740    2.46555581931709    4.34217737438245
C         8.47286857858983    4.93149716978019    4.75896338643580
C        10.11922692879658    2.79155576487317    3.98205209868642
C         8.86093509434083   -1.14750567414679    3.57104081393700
C        15.97265891703850    4.41052719414484    9.56183784785541
C        10.28016581390999   10.53929113410821    8.08018015913956
H        11.86356348315348    1.10802735309412    6.74204796330459
H        13.18898840494477    2.91655189999355    7.80920923622366
H        10.63042424225586    5.68729952581466    7.80122377653075
H        12.87432597880337    7.68573895368424    8.41184517242008
H         7.82907223792790   -1.40856565474119    3.81080857412328
H         8.98746623599752   -1.08627152130454    2.49147724675165
H         9.53900243252325   -1.88834166208934    3.99899144424971
H        16.63242252124905    3.59866665771361    9.26780578585204
H        16.43553969194376    5.37689025994462    9.35307306530646
H        15.74248926945414    4.35490878379910   10.62756843610081
H        10.82389851084554   11.47904495064929    8.12844788093622
H         9.74054733852656   10.45267659228909    7.13470224241228
H         9.56210291731895   10.46921812841617    8.89991972502706

