58
CSD_code = HAPSOJ | q = 0 | S = 0 | Stoichiometry = C22H26F5NO2PtS | MND = 4
Pt        1.56665888634330    1.60413817504689    1.92505435953807
S         0.51038610826349    1.17076521955924   -4.55834707214452
F        -0.19093534750779    2.68857349910676   -4.57623573029759
F        -0.99831585908037    0.49725862605517   -4.30145732164747
F         1.16954726311792   -0.35373189831962   -4.70509550474556
F         1.97800496450803    1.84054274597823   -4.98000169376370
F         0.18153301012069    1.09344025950771   -6.14235732819890
O         1.60074602516518    1.88263109244679    4.00632455783178
O         3.42962127132450    0.89492124659298    2.03963301823308
N        -0.26378840791196    2.26620954336655    1.70606751999289
C        -0.76968464625074    2.28270029676492    0.44812942470576
C        -2.06655773393991    2.72767859221584    0.20848377496316
H        -2.45229715620435    2.73307207391060   -0.79738057047950
C        -2.84951314604658    3.15835204824657    1.26413999637781
H        -3.85662729954272    3.50553709779678    1.09359722701066
C        -2.31522638384886    3.13522286196383    2.54598606503114
H        -2.89194927662670    3.46253395353574    3.39577837794189
C        -1.02122997820757    2.68234377946238    2.72007430730948
H        -0.56564350449581    2.64791078855373    3.70058511509657
C         0.16706328812555    1.80241850883405   -0.56088800527927
C         1.42244585726440    1.40079601878038   -0.04783187376458
C         2.37714954070563    0.93429807932932   -0.94725052694452
H         3.34363661457463    0.62309646457479   -0.58117019323581
C         2.11538226445971    0.86034653312345   -2.30921216928236
H         2.84920903958504    0.50178146591855   -3.01097059999216
C         0.87668559158462    1.26208706433411   -2.75279292339252
C        -0.11023852970392    1.73166696622800   -1.92667272079884
H        -1.05712623369485    2.03006055131411   -2.34219104159473
C         0.97222736948358    2.54710122751094    6.47501550977338
H         0.86178724926491    3.46180402046916    5.89685789285133
H         0.82489361702335    2.78207757907925    7.52652860137542
H         0.20109154195516    1.84500945369872    6.16591117437891
C         2.36318024570991    1.94355597202546    6.26294759559667
C         2.56559341389618    1.62376656101207    4.77336987943905
C         3.79229425098561    1.07197617013890    4.38488610590052
H         4.51395470989153    0.89442218954727    5.15951922953082
C         4.14539423035369    0.74159924519877    3.08048902188364
C         5.52337253246659    0.13343515248427    2.77098409584961
C         6.40802167917778   -0.09958390063365    3.99378255110681
H         7.34785029215694   -0.54259526611090    3.67018930664792
H         5.93977965431356   -0.78553414947535    4.69594812855976
H         6.63770357508105    0.83420833211843    4.50172012859675
C         3.42089807675380    2.95654362556687    6.71511808490113
H         3.36640349458615    3.85840211992299    6.10905983721594
H         4.42458001313345    2.54908139985333    6.63271793239055
H         3.24841667167195    3.22918103891555    7.75425676808139
C         2.47756263666989    0.65252450900466    7.08118302768791
H         2.28256668531839    0.86378693090679    8.13057973126804
H         3.46913224411649    0.21601062765678    7.00049517888075
H         1.75128986206824   -0.08072200172700    6.73691349447230
C         6.23353790581460    1.09751400027150    1.81090962905990
H         5.61225812835854    1.28726165841800    0.93970590694441
H         7.17932442696652    0.67239117583880    1.48327369099814
H         6.43234648893926    2.04625696729579    2.30548157183718
C         5.27658933175542   -1.20812724223178    2.06750550511878
H         4.63044434588672   -1.06863533748362    1.20501534723561
H         4.79636824172142   -1.90893651712113    2.74754073513340
H         6.21910086259444   -1.63732719638765    1.73589586887108

