63
CSD_code = HAPSUM | q = 1 | S = 0 | Stoichiometry = C31H29P2Pt(1+) | MND = 7
Pt        6.04342294162577   11.98389958027821    9.74107081586215
P         6.61177166073582   12.40635935866164    7.58783624174053
P         4.83233883567271   13.89383349884892    9.62800543946840
C         5.89651756043480   14.05465815797598    7.11469796944348
C         4.57512291087512   14.28330321365954    7.83942611419619
C         8.34249269790444   12.54431313900895    7.08731223410464
C         9.32517440993604   12.11577894833805    7.97320969967569
C        10.66062768057948   12.20349134243449    7.62446901790206
C        11.01796683042916   12.72105424211995    6.39007094968370
C        10.04155225087134   13.16089006569536    5.50902923290470
C         8.70473736050925   13.07886008690711    5.85250604826583
C         5.78582446659434   11.22673523311154    6.48522118584614
C         6.34174715082683   10.74462801937669    5.30630107092101
C         5.62561850322059    9.84829010310230    4.53095960536588
C         4.36522225254785    9.43078061472072    4.92612746021536
C         3.81571082969931    9.89752976886732    6.11110913389837
C         4.52688476372105   10.78688961492357    6.89234674175531
C         5.76089513044732   15.33259685883426   10.21034914572561
C         7.11756557298210   15.17859978836519   10.47603798647729
C         7.87010881813019   16.26618104094173   10.87980068622972
C         7.26692259388768   17.50625516689858   11.01987486105216
C         5.91431399755207   17.66195227394663   10.75445747510077
C         5.15653276171677   16.57931754756943   10.34753093210686
C         3.21600479519418   13.95457352979493   10.43217931518272
C         2.06456164355050   13.50024469936708    9.79461499004494
C         0.86029260130323   13.49150163788323   10.47519911093886
C         0.80019786598503   13.91717885663498   11.79267159216553
C         1.94916253512026   14.34943511186682   12.43720955989132
C         3.15602691683116   14.36304680640928   11.76403193758145
C         4.88633352648986   10.36162194786766   11.08936469328779
C         5.75725374339242   11.27275176464286   11.81324713806961
C         7.09346714733671   10.97805754754469   11.46115877546324
C         7.03369684516686   10.09061518094584   10.35630056943636
C         5.66475939611176    9.63761759419360   10.21177639620884
H         6.62936075495547   14.81256618680297    7.41354936270419
H         5.76242080926009   14.10515703894981    6.03051010458336
H         3.80657604618407   13.62032786964324    7.43386651800551
H         4.23515772769299   15.31828860054333    7.73509859365119
H         9.02894170274009   11.72263037746689    8.93824978267517
H        11.42242916838750   11.87079979884549    8.31270021296889
H        12.05899495616668   12.78750524927905    6.11455218905421
H        10.32391132433298   13.57090271798247    4.55137496235376
H         7.94701256576980   13.43066966570952    5.16715920230365
H         7.33061323920133   11.05568639353352    5.00332197387232
H         6.05708481687723    9.47034124270467    3.61685226919475
H         3.81458442535611    8.73049239390186    4.31746556488221
H         2.84017318016777    9.55901966513939    6.42587438254704
H         4.12490688538270   11.13862481770228    7.84016118939170
H         7.56706078409607   14.19338438388244   10.36201091004853
H         8.92261941967076   16.14918101850875   11.08789475721220
H         7.85156064950783   18.35507238633718   11.33927566211018
H         5.45025814031896   18.62982159318202   10.86663759629388
H         4.10003472591315   16.69223451228156   10.14557887729570
H         2.10475296956705   13.15646642425237    8.77129034149151
H        -0.03364690739010   13.14851088389875    9.97703945470252
H        -0.14149078359118   13.90690912348399   12.31912626913652
H         1.90354653772378   14.67355974354433   13.46560052542941
H         4.05791308786992   14.69619692947589   12.26030874446559
H         3.83459373245782   10.23409619747464   11.28612150260690
H         5.44813097076276   11.83318498237860   12.68469203047623
H         7.98405193974799   11.34988209310094   11.94420260740652
H         7.87930563984404    9.57863412631333    9.91778158515237
H         5.34881249364477    8.83111124196608    9.57169870177117

