97
CSD_code = HAPTAT | q = 0 | S = 0 | Stoichiometry = C46H46BrNP2Pt | MND = 4
Pt        4.28809239312033    2.48547458901119    3.68417414628385
Br        6.43984092394605    1.24333587781966    3.17782077521551
P         2.99286911310762    0.60655012950315    3.42508731359328
P         5.55143990542171    4.33194868804412    4.17231297204158
C         2.64739673312030    3.64155676776233    4.06197225565867
C         2.31744879012092    4.42166744589995    2.88242218372282
C         3.02493880758875    4.27881762233572    1.78799688055912
C         3.71937923425906    3.44089289595084   -0.35861025853979
C         2.32475894583371    2.84896434344170   -0.57783844553884
C         4.13137532548741    4.31354575987917   -1.54557303310726
C         4.73688072984895    2.31892013406796   -0.13682357182806
C         1.98314228474563    3.69261389565798    5.21971891267669
C         2.37925746000888    2.83786694912242    6.39078614166518
C         0.77414744649737    4.55586736490791    5.47223641138755
C         2.87774979190241   -0.20297695294161    1.78850466725011
C         4.05373730271977   -0.74464803770338    1.27052158302369
C         4.05010492329267   -1.36849461062576    0.03785662157021
C         2.87567611980309   -1.46086325091316   -0.69180863268697
C         1.70367109246205   -0.93317023842841   -0.17789578687965
C         1.70022101952855   -0.30706861713295    1.05695994033126
C         1.24329434882321    0.73870076839924    3.92624583885947
C         0.44182702977095    1.67024066785015    3.26946559536125
C        -0.88174629501644    1.83502667018834    3.63016581283551
C        -1.41907777657928    1.07807575292536    4.65964239283195
C        -0.62475836908280    0.16151073497123    5.32579346063576
C         0.70142477843244   -0.00736267528280    4.96487267897731
C         3.57621115327482   -0.80227164408608    4.42278399013587
C         4.40433660769136   -0.56548927973748    5.51147429272064
C         4.85382362905224   -1.61281589519915    6.29386709957694
C         4.47264470382057   -2.90899379772705    5.99272503080937
C         3.63968749091928   -3.15315243609340    4.91188473295545
C         3.19093574467408   -2.10728831274858    4.12774056168186
C         7.04596160150244    4.60458714650599    3.16870650433564
C         6.88751489202406    4.63341313220991    1.78502272097808
C         7.98353895789317    4.81449681904494    0.96377007067764
C         9.24666774152755    4.95700033961907    1.51519472015162
C         9.40904029531507    4.91145755792506    2.88895375084893
C         8.31529392147148    4.73366070859437    3.71811851757329
C         4.74005708419665    5.96537151720872    4.16704022182467
C         3.89313554038336    6.27230202814727    5.23009820424997
C         3.18263907319917    7.45652555464709    5.23819862391271
C         3.30503818197491    8.34662567789291    4.18299845383305
C         4.14853618327224    8.04912163540767    3.12656255999277
C         4.86238438222287    6.86339566524664    3.11458306670190
C         6.20257066810657    4.26357929423593    5.87014395368057
C         6.63134388247118    5.40788657399564    6.53865885920899
C         7.14149125074884    5.30832571703316    7.81939316713185
C         7.23266770638827    4.07246125116448    8.44186376231252
C         6.81717399948878    2.93086577514842    7.77819037442915
C         6.30568628788759    3.02856406501865    6.49698823980279
N         3.75304031939650    4.28911593853607    0.81547779394695
H         1.49403077254062    5.12266399772857    2.88395925303359
H         2.05565077453840    2.21423038153478    0.26442178353771
H         1.58531475939995    3.64308016509384   -0.66850527345300
H         2.30649681151115    2.24582409046781   -1.48220000653473
H         3.38927393283300    5.08900157507480   -1.72380800519462
H         5.08695674555954    4.79130452314079   -1.34391082135049
H         4.22455632376977    3.70344152853416   -2.44021256800553
H         5.75524124884807    2.69655362352571   -0.17288230750348
H         4.57457689253910    1.86895399338213    0.84417819086642
H         4.62133248462079    1.54559474557826   -0.89196517331317
H         1.54124252216519    2.21639257163862    6.71007510895427
H         3.21413818989090    2.18665565923899    6.12311263372139
H         2.68149602398385    3.45368885509423    7.24016010047541
H         0.78844537757683    5.45879136565763    4.86617889802699
H        -0.13926591869603    4.00130134767645    5.24573243007329
H         0.73735893806721    4.84779023701840    6.52067486316443
H         4.97320612576668   -0.67135454787866    1.83422371765817
H         4.96783613329731   -1.78140604260715   -0.35310135358594
H         2.87212445614330   -1.94650041552280   -1.65673199866704
H         0.78289445682190   -1.00926518803265   -0.73823023506246
H         0.77440446911157    0.08723230916710    1.45058105237643
H         0.86575046288596    2.27609989530107    2.48015982550952
H        -1.49543134524648    2.55695895581552    3.11054893751986
H        -2.45260401346606    1.20860826766645    4.94547488055703
H        -1.03731739320259   -0.42481015211497    6.13410753243450
H         1.31463350973101   -0.72019870852649    5.49721130332954
H         4.70567052504673    0.44946908845754    5.73443533080628
H         5.50605220359537   -1.41913581766525    7.13252361442116
H         4.82620365155790   -3.73121283813273    6.59711627129054
H         3.34103398262857   -4.16462882797806    4.67734124270994
H         2.54153655150597   -2.30034939115810    3.28475158038535
H         5.89860002089477    4.49940241799778    1.36612302494591
H         7.85732798185429    4.83558251234089   -0.10965307295445
H        10.10522180289382    5.09071295256029    0.87358629625916
H        10.39494932758990    5.00626041122812    3.32060042746854
H         8.45619437641157    4.68331315359335    4.78815758550624
H         3.79661488366861    5.57584930668038    6.05068698334611
H         2.52875240911564    7.68564205747199    6.06730405337752
H         2.74526753093585    9.27066498475558    4.18612328854629
H         4.25030770969541    8.74251529650877    2.30427896306204
H         5.51647757438417    6.64072164111112    2.28481439837594
H         6.56401949061202    6.37207532804928    6.05302308037412
H         7.47358052558770    6.19809620620648    8.33475910110620
H         7.63274966693007    4.00193060058522    9.44268880357715
H         6.89517356676543    1.96562233237990    8.25647962407376
H         5.99951011925820    2.13909784475400    5.96246050520928

