25
CSD_code = HAPWOK | q = 0 | S = 0 | Stoichiometry = C6H10Cl2N4O2Pd | MND = 4
Pd        3.09928675531589    1.11100416949664    0.25202957928511
Cl        4.88611185165336    0.24083924591142    1.21663969601181
Cl        1.91000988689037   -0.74192501873919    0.42641192490116
N         1.39403363629228    1.96848251479380   -0.81363796426044
N         4.27826782795078    2.91754454185101   -0.04681383005006
N         3.98173225384498    3.50926407304192   -1.28776686371263
O         4.76649433809333    5.57745516699223   -0.79609539059315
N         1.80497164509327    2.71560372986654   -1.92981539012737
C         1.77071831770106    3.74557495071197   -4.00894827928188
H         1.63168704451744    3.05684594779706   -4.84425124939688
H         1.42686434453801    4.72661081498604   -4.33152700370550
C         3.21642728531865    3.74356846382720   -3.50558717420566
H         3.90896944188927    3.39020318241880   -4.26885395423048
O        -0.25800342774792    3.22649775627384   -2.72426362282734
C         4.22683086254237    4.82254115223030   -1.56316016227580
C         0.93819570263048    3.22991299275733   -2.85152221769611
C         3.21108221684152    2.80305398923971   -2.27958931333997
H         3.63426922963820    1.79023672722544   -2.43830216157491
C         3.67918187251763    5.09889530713073   -2.94738071228058
H         2.85234213197945    5.80382296890949   -2.84660598558362
H         4.44269154347592    5.57368687267842   -3.56115628006803
H         4.20120870140193    3.62909430900162    0.68888314815359
H         0.88134310432185    1.11626097378005   -1.08934299144013
H         0.76391980572124    2.52389835095124   -0.22541887239036
H         5.24156362757927    2.54912681686592   -0.01412492931047

