41
CSD_code = HAPYOP | q = 0 | S = 0 | Stoichiometry = C19H14N3O4Re | MND = 6
Re        1.45246645101179   -5.21632389502502   10.37555295626476
N         1.64631500440701   -7.26423914015611    9.62773882948480
C         4.63728644400270   -5.36924429416102   11.16795495570006
H         4.72734532773680   -4.35973876877968   10.75802165975035
H         4.85214526551118   -6.08557522003221   10.36968197604333
O         4.56468822751324   -5.88289096054781   13.44571917538740
O        -1.21848459448086   -4.99465892495971    8.83958847587751
N         0.72508408585572   -6.38814992166348   11.95699050943577
O         3.11484154645282   -3.97871058405601    8.07077025366397
C         1.20390596634245   -3.49029726414082   11.24438289429956
N         3.28215974356537   -5.57747132933407   11.65875469890507
C         3.33522567725029   -5.85171167784828   12.90512627273514
C         2.24430643814985   -6.19333723982081   13.86162669875466
H         2.41238068840135   -5.63230576488565   14.78378817127419
H         2.37401458980663   -7.25489316675669   14.10319077817430
C         1.10233397733178   -9.57276656810921   10.17544558716988
C         0.17693136688759   -8.63919872959508   12.67450138198154
C         0.13943160869015   -9.99513618602453   12.34537490066412
H        -0.25973755029317  -10.68837129423476   13.07330479715901
O         1.04850808190048   -2.49141102267761   11.78933639940475
C         0.59588104884700  -10.46495462455782   11.13642482126321
H         0.56943418141717  -11.51945569357698   10.90756737314379
C         1.60535345085743   -9.96221223790266    8.91825785634978
H         1.58494956915964  -11.00608500207469    8.63966329384951
C         5.50921434215097   -5.58815062620206   12.41876136124511
H         6.19423604339656   -6.43483379291571   12.32516713613570
H         6.07278100606812   -4.69903188243710   12.71118155785521
C         2.12653134483829   -7.66979528723859    8.46560079718564
H         2.53469727302735   -6.91286964299749    7.80857230771962
C        -0.37829757304957   -8.08620896172965   13.88570346553419
H        -1.01907325640885   -8.71281987799279   14.48906925166488
C         2.46490638402225   -4.40586678210432    8.91908323948053
C         2.11587984638588   -9.01197621586783    8.07227219604531
H         2.51338343996535   -9.27891739520395    7.10534332754492
C         0.78381999857419   -5.98955956618023   13.34204483157484
H         0.53317356518243   -4.92418777029104   13.41426827591933
C        -0.14977556054392   -6.80782919114616   14.19653440200019
H        -0.59785823748234   -6.32934069302207   15.05280002610943
C         0.67078558103834   -7.70331105673926   11.73801085440074
C        -0.21743439659737   -5.04617423404919    9.39655200496914
C         1.13046360310805   -8.18298751296175   10.47157024787875

