78
CSD_code = HAQFIR | q = 0 | S = 0 | Stoichiometry = C27H38BCdFN6S4 | MND = 4
Cd        3.15086794217355    4.16626568778020    0.81178106304893
B        -0.11383603660998    2.49950882186593    2.05668962058207
H        -1.12958523679349    1.98412465246977    2.41182877163776
F         7.38961331946583    8.52630252536496    3.95185030804300
S         3.06019603606536    2.88020878229830    3.19680201479487
S         0.95222297061480    5.63440502951613    1.27147182780414
S         1.99819922030321    2.18797474407041   -0.58983075344696
S         4.97742181727797    5.36421173744718   -0.36023639972064
N         1.00948781224493    1.44692374582581    2.15794215656373
N         2.89538442952442    0.31822650984090    2.29600681689685
N        -0.30721488115788    2.97343694392967    0.60094840007017
N        -0.12449130783697    3.63438810073719   -1.49175617695116
N         0.16030034844487    3.69494499632322    2.99493403018458
N         0.76290136481745    5.56733723589302    3.98492137773940
C         2.30639587708497    1.52233980930674    2.50997849504927
C         0.78287259734441    0.17374630621349    1.71189917986941
H        -0.18195733037509   -0.12810075720170    1.36283050144854
C         1.93589228831235   -0.52226041646606    1.79166720708452
H         2.12735562036066   -1.53700943126943    1.52227915487252
C         4.31572446040722   -0.01095689500947    2.47516954301820
C         5.16038264215121    0.92804814940217    1.60606140383476
H         5.16616451910764    1.93869773807383    2.01108859310931
H         4.76618416816507    0.95701505009928    0.58928617483393
H         6.18673902361138    0.57366097430975    1.57141368748036
C         4.67810009664554    0.12205602661753    3.95674160706810
H         4.08857002671955   -0.57099589070621    4.55360758303666
H         4.48968838595907    1.13191405859060    4.30930673379573
H         5.73130389672980   -0.10360912225562    4.09698995373930
C         4.57424408658464   -1.45079999428910    2.02809600220761
H         3.99310808155945   -2.15942162963032    2.61389123796972
H         5.62634746213122   -1.67708570723503    2.18025558594183
H         4.35137510625074   -1.57870742399079    0.97152936806404
C         0.63840169945039    4.93674967724150    2.78875909225202
C        -0.00743937343932    3.54209291838535    4.34400031013123
H        -0.36945892773971    2.62447822446852    4.75756944517912
C         0.36273919377448    4.68599115551120    4.95636574242796
H         0.36786533543050    4.91853860847719    5.99800365837900
C         1.31178686664827    6.90995315829861    4.21940626725345
C         0.42138530536288    7.94632314117265    3.52967426083645
H         0.38103420722783    7.76768445478831    2.45940151654457
H         0.82194508569147    8.94144640786611    3.69986959923295
H        -0.58972108779086    7.90185157556372    3.92955729100778
C         1.34156743672499    7.20386358676781    5.72034094989147
H         1.98651855386242    6.50338757235779    6.24535273828200
H         0.34299671102683    7.17623117441162    6.15075314680284
H         1.74143748042252    8.20348297900492    5.86846264651403
C         2.74678098635595    6.95505572328639    3.68490024330117
H         2.76525026815804    6.91081271208513    2.59719467396946
H         3.31641490082431    6.11495513104566    4.08030825746109
H         3.22993494941059    7.87837244055951    3.99116484993744
C         0.49514634031040    2.97400233899212   -0.48049828254900
C        -1.44934717977614    3.64592954650438    0.26046369003002
H        -2.24113517698818    3.78711574423664    0.96563534922959
C        -1.34156077669663    4.05598340994857   -1.02035743657180
H        -2.03784114903256    4.61249520127039   -1.60734928742136
C         0.43350163904614    3.93463056734824   -2.81766168261578
C         0.67740685975087    2.62272935425314   -3.56792153181014
H         1.37329467712259    1.99195525064222   -3.02275291540920
H         1.09716911385926    2.83538213872944   -4.54685256802732
H        -0.25760307773853    2.08097681059790   -3.69708257165074
C         1.73187048041483    4.73091977468150   -2.64598063625481
H         2.53777983175101    4.10432108297721   -2.26705021939074
H         1.57728151682580    5.56194243518892   -1.95602813786953
H         2.04643347962433    5.13266824727495   -3.60494642359816
C        -0.55750994904934    4.78536148644923   -3.61418542028546
H        -1.50031796567660    4.26367647096257   -3.76335215133838
H        -0.13078127329402    4.98807646643711   -4.59295141098406
H        -0.73932411446747    5.73801249353777   -3.12241993552016
C         5.67402707622250    6.27962100671964    0.95738528688663
C         6.25476981067867    7.51637993164146    0.66963122479895
H         6.23969966752591    7.87443563894080   -0.34816374192947
C         6.83408788339257    8.27245228066276    1.66780394035385
H         7.27974067912863    9.23155149737036    1.45508419689233
C         6.83440031432355    7.78291164847363    2.96169988306160
C         6.28206232253221    6.55472629898239    3.27418675604738
H         6.30909931742124    6.19490054166507    4.29106834478562
C         5.70673890851886    5.80295708561430    2.26769925935319
H         5.28471234558977    4.82932425068900    2.50296666268974

