90
CSD_code = HAQFAJ | q = 0 | S = 0 | Stoichiometry = C31H47BCdN6S4 | MND = 4
Cd       13.88535686354361   12.41025287046946    4.03187965558395
B        12.50752566921788    9.06348064342708    2.61395352084737
H        12.08785132798082    8.04734170505149    2.14915186648002
S        15.55534695660932   10.46881800687651    3.17562924646613
S        12.18369285153431   12.37997430694887    1.93508517689717
S        12.39115943078606   10.72762138172211    5.56957953647687
S        14.97771629661521   14.57680325514175    4.46150153414666
N        13.56767291651586    8.69259720965645    3.67352860347957
N        15.25195854482313    8.55611797043067    5.08592193785229
N        13.13426967675571    9.88469551383283    1.46774324625892
N        13.95524011737649   11.41253669770122    0.11023249947698
N        11.32184557949086    9.81299592713935    3.25546449783514
N         9.96725590953154   11.11992225097719    4.39903162000757
C        14.75770506978796    9.22483300838597    4.01156916255278
C        13.30775312031063    7.68136074478976    4.55736268083412
H        12.40451820540206    7.11140167008714    4.49832795748544
C        14.33551792721119    7.59436516668440    5.42702658001653
H        14.46430176188467    6.92502981127579    6.24835453822196
C        16.49427438200136    8.85225584103176    5.81129102171969
C        16.43052380061393   10.29077059712046    6.33359467333723
H        16.48520404189115   11.01088645509668    5.51918602027365
H        17.26300531671522   10.48302643247300    7.00438998623185
H        15.50031569412079   10.44829623982256    6.87773085628610
C        17.68596458417660    8.64753499808082    4.87263211935339
H        17.61048632950835    9.30175900371418    4.00918308274684
H        17.72277001145925    7.61599576975788    4.52766389881904
H        18.60848695791714    8.87426067529104    5.39936723451469
C        16.63628338288597    7.90656718196858    7.00564462750277
H        15.81846676828295    8.03832142773411    7.71012746814191
H        17.56480393625380    8.13810178195089    7.52102011762708
H        16.68143586864728    6.86746117979851    6.68713023657610
C        13.13449687697485   11.19843902272656    1.17064205397783
C        13.97066512108187    9.26631076720370    0.57849258271997
H        14.14393648815796    8.21160238647339    0.62097098252480
C        14.47912971346664   10.19826816822271   -0.25394433303636
H        15.16894082887856   10.07399693380654   -1.05883529131555
C        14.30188624376007   12.71068673078669   -0.48401337881678
C        15.33306185415416   12.51081836606113   -1.59630796889502
H        14.94534176556599   11.87468623791445   -2.38903857420579
H        16.25478770776810   12.08754600958311   -1.20427861384477
H        15.56546645176575   13.47970072977829   -2.03047297619314
C        14.91639923374388   13.60765647759099    0.59625767511222
H        14.16445836330718   13.95185582669084    1.30458879036674
H        15.36553611311410   14.48334145804039    0.13640163653961
H        15.69150323605153   13.06653245189714    1.14114374761495
C        13.04178856377290   13.34094308070481   -1.08288525411233
H        12.63317285545194   12.70196461998550   -1.86340388854501
H        13.28713958622609   14.30738425698486   -1.51363929552100
H        12.28421335478528   13.48525430460885   -0.31824667346509
C        11.20765728862060   10.56816302072469    4.36398150643510
C        10.13385200540658    9.89636293700874    2.58236317622328
H         9.98486241304004    9.38509487731056    1.65482991537441
C         9.30037818119851   10.69812739709062    3.27690016880234
H         8.30087133410952   10.98986046908493    3.04268480034750
C         9.45515797415514   12.07147687431352    5.39361399902340
C         8.04362761316142   12.51614332803192    5.00623932407866
H         7.35766744799654   11.67284566380015    4.96853297990087
H         8.04454138532950   13.03095094504925    4.04846459855818
H         7.67905207832078   13.20853339097121    5.76058293712151
C        10.36450044639658   13.30550244966796    5.42085170461882
H        10.53626571764402   13.66942655476989    4.40693317464828
H        11.32458727377558   13.07533238508924    5.88009554918194
H         9.89520842211401   14.09615430410461    5.99966744670861
C         9.40230588484695   11.38718388401884    6.76226823548243
H         8.73453587404623   10.52857678147824    6.72992753812584
H         9.03604935863666   12.08779099191061    7.50725053964683
H        10.39034552714722   11.04841268007699    7.06002754222058
C        15.71223042894572   14.22852583730481    6.01653764262678
C        15.11132662974284   13.41131412350553    6.96697549295546
H        14.14452976494144   12.95575186538809    6.75940596498075
C        15.72516824090847   13.17533758447912    8.18370261815583
H        15.21794671674155   12.53109321017513    8.88427095086492
C        16.95039686674151   13.74763376679206    8.50280007096713
C        17.53005948263366   14.58530968324684    7.55114710314935
H        18.47664017738996   15.06398765210121    7.75539649298052
C        16.92974868763581   14.82626335383723    6.33427705986186
H        17.39787022010594   15.47645290085017    5.61028918403195
C        17.66400512344626   13.50239108456036    9.82326960690695
C        17.82486402058036   14.83838878266219   10.56202101942785
H        18.41354331258714   15.54199608026827    9.97994369771837
H        18.32273965484236   14.68402066927198   11.51749602416686
H        16.84941263730532   15.28344509406548   10.74754775387928
C        19.04657839764689   12.89569199685161    9.54304551939843
H        18.94230227379694   11.95385194326304    9.00747817221252
H        19.57089623274420   12.70542272663888   10.47757628408149
H        19.65643630772248   13.56254095803426    8.94020070147587
C        16.90036160047151   12.54012365694156   10.73757642042299
H        16.77134553258616   11.56952385916898   10.26342632898615
H        15.92371132768971   12.94103633066914   10.99844224765840
H        17.46048647897857   12.39328435217037   11.65932208150936

