77
CSD_code = HAQFEN | q = 0 | S = 0 | Stoichiometry = C26H38BCdN7S3Se | MND = 4
Cd        6.03382067074896    4.44669334957494    5.83753926905568
B         2.82042294207361    2.53179237489653    6.95686340559385
H         1.82313807496902    1.95685287386243    7.27340901621636
Se        7.43496840455315    5.95173933435742    4.18107684191872
S         5.92319148048614    3.06388845249963    8.20415698253319
S         3.72641912106620    5.72231586526097    6.23828537740317
S         5.04748489376318    2.41293266562178    4.38912585028175
N         3.99456220983824    1.53980344765824    7.07417547141771
N         5.94541138293307    0.52811569625560    7.22142621723060
N         3.00278755813494    3.72405507191896    7.91911823684861
N         3.52333178779363    5.59990632648602    8.94806104721340
N         2.64627472671615    3.00984902797224    5.49940457847773
N         2.82408672251364    3.62584494744955    3.39263351813375
N         8.11232477698220    5.35055187728385    6.74690161762528
C         5.27750057325432    1.68802929312820    7.45596688960115
C         3.85804242476756    0.26805401468132    6.58799137506258
H         2.92105308342473   -0.08360430363751    6.21042064051434
C         5.05059332049102   -0.35626543665814    6.67309794295877
H         5.31087246514162   -1.34921725587018    6.38078176913878
C         7.38048430976203    0.28879099422682    7.41394851372972
C         8.17245066561370    1.30800009953161    6.58663925126013
H         7.80944700471805    1.31903597079492    5.55800906290159
H         9.22568825839913    1.04043864709562    6.58223689846608
H         8.07788811317226    2.30909480086086    7.00378976619168
C         7.71232021656728    0.40252146604444    8.90444908532319
H         7.44557813274683    1.38612369267221    9.27989395904872
H         8.77677558504541    0.24730197598834    9.05599451944238
H         7.16409210100925   -0.34709804959518    9.47159115410833
C         7.74251292620593   -1.11676166502048    6.93044670147860
H         7.54153065449534   -1.22863744033149    5.86769200899584
H         7.20302210432984   -1.87958981822740    7.48737811407457
H         8.80572204772401   -1.27586151100986    7.09103046772327
C         3.43504258595625    4.98617248230585    7.73933616457365
C         2.82549597326469    3.54110680338983    9.26296524228316
H         2.49507371721295    2.60283086923854    9.65625953221903
C         3.14508790661632    4.68680915570267    9.89970909163856
H         3.13015066607535    4.90016171258817   10.94542075879633
C         4.01339757552357    6.95920029105819    9.20730768098808
C         3.07064580064494    7.96690981461119    8.54431819793684
H         3.02715857928205    7.80121566757191    7.47186827527017
H         3.42794858660837    8.97658498337099    8.72565173665170
H         2.06690162820051    7.87091074798707    8.95354569073376
C         5.44082257363377    7.08784029597988    8.66387137634927
H         5.44788207468739    7.08815621528871    7.57505953930608
H         6.05164241113795    6.25785025423807    9.01841556990057
H         5.88350376510349    8.01973115708257    9.00511623823237
C         4.04087283051809    7.22148307145425   10.71444066210920
H         4.39978394987639    8.23335634140334   10.88393792862977
H         4.71621289230900    6.53482271562458   11.21933866101775
H         3.04698464890669    7.14304590332839   11.14922769020439
C         3.47392847699607    3.05108440423437    4.43718190968585
C         1.46346776492884    3.58051404175281    5.11639559968607
H         0.64675177221814    3.67650294512799    5.80043478652768
C         1.56739843859303    3.96193360883439    3.82653079614680
H         0.84315762880745    4.44636036760756    3.21016384919760
C         3.36526527287889    3.88648994303499    2.05211684444010
C         2.32056914726807    4.61542709352513    1.20509506009549
H         1.41742583232807    4.02069096869273    1.08573762463100
H         2.73786639123669    4.78930051901562    0.21674777720052
H         2.06996795364128    5.58051652058261    1.63882486127111
C         3.70206593984482    2.54986463921505    1.38529933411767
H         4.43439883693859    2.00404959989605    1.97287644566184
H         4.11564910420966    2.72956496246726    0.39720493496363
H         2.80685605154577    1.93868443533584    1.28609803834368
C         4.60590411197735    4.77590198706864    2.16961542098231
H         5.45165026225043    4.22182329177591    2.57165603688254
H         4.40552591438105    5.62747139333997    2.82085114300525
H         4.88806092787885    5.15057911867734    1.18995235139503
C         8.52233995355752    6.06415538805834    5.69388884180858
C         9.68830423020053    6.83454457018117    5.73822040011050
H         9.98208607205806    7.39482575964629    4.86363839431151
C        10.42443069958266    6.85366252357647    6.90092148203965
H        11.32904912912562    7.44137491669203    6.96557509022826
C         9.99124137155921    6.10591490003657    7.99367918937118
H        10.54464788152266    6.09641114647947    8.91911811952715
C         8.82896964863501    5.37150107213848    7.86206576906903
H         8.44231428084238    4.76746461499921    8.67478431248103

