80
CSD_code = HAQFEM | q = 0 | S = 0 | Stoichiometry = C33H37BF2IrN4OP | MND = 4
P         0.84929076515613   15.34511442445819    9.25540711087945
Ir        0.06944948168006   17.08329399628288    7.93056974418522
F         2.73027075566637   17.18307238661810    7.06453784084439
N         0.88833728573530   19.07530339575943   10.35047307458863
F         3.71847418461508   19.22030851332351    6.80654034044405
N        -0.68077601538563   19.36556299759529    5.71179668658990
C        -0.28930050157897   14.06029511885969    9.89964304406274
N         1.36840629990280   19.02313353368767    6.31386569439893
C         0.09617829783795   18.64335636285751    6.55781697305135
O        -1.69143800871731   15.17809047951869    6.40800295738721
N         2.18674598964028   18.90325576307331    8.63511796205826
C        -0.29676940595355   19.10908002323733   11.20305677815699
C         1.80756727220259   15.78025520584131   10.74682251281892
C        -1.19328240797698   17.90155721989778   10.94473044831960
H        -2.10153679467122   17.98895454636546   11.53505411155708
H        -0.68322349269909   16.98371558911121   11.22438419263597
H        -1.46208730590166   17.84377655292771    9.88901566389081
C         0.12019759486736   20.16612925633773    4.93179873332566
H        -0.25574211119429   20.81872130274800    4.17436571015915
B         2.57470497058908   18.56230089521820    7.17863014254507
C         3.00088312696912   16.47203105164728   10.54742363263092
H         3.34962231436938   16.63963716340764    9.53825088937374
C        -1.65581514923771   14.30935055152848    9.84723313395670
H        -2.00011883522317   15.24475576635066    9.42361044056828
C         2.06756339217111   14.29555478140074    8.38530105345554
C         0.16503516915888   12.85518853165845   10.42512344777894
H         1.22472258469820   12.64753118564679   10.46111885455907
C         1.01765590407245   18.47252792631366    9.14303366668718
C        -0.95510852263628   15.91864419642254    6.92970840518732
C         2.79504421173811   19.75864488446675    9.50379555775456
H         3.74089014751213   20.20851957214820    9.28259626623169
C        -2.13676829037436   19.30011212897795    5.57422810259480
C         1.39765282206544   19.95123589034418    5.31926930260282
H         2.31688614314923   20.37746280697059    4.97452699750494
C         1.36084522810148   15.55131251829060   12.04256731317222
H         0.43833143543954   15.01128851323898   12.20969496167353
C        -2.55709392908684   13.37111618659841   10.31781073320623
H        -3.61737055597395   13.57085969583551   10.27082321793205
C         0.12330175031675   19.10801389193605   12.67730497128167
H        -0.74907253200240   18.93747836524892   13.30285349061723
H         0.56416446318151   20.05639882403439   12.97331630714130
H         0.84237760757955   18.31308319467965   12.86260142428257
C        -2.09851349024948   12.17473050590414   10.84311553920953
H        -2.79974758432053   11.43852365242600   11.20765831844088
C         1.98512387059768   19.87491304908176   10.58027402366655
H         2.11098570082026   20.45620688723652   11.46854715599038
C        -2.67188187250475   20.62815506721934    5.02420362552148
H        -2.28080645974263   21.46782400854635    5.59475023420400
H        -3.75573349231749   20.63536605424200    5.10548664780006
H        -2.41982796535051   20.76215585055319    3.97564855228073
C        -1.06565426483582   20.39497928398539   10.86872023151725
H        -1.37907800283215   20.37558777429658    9.82733685734362
H        -0.43887011343283   21.27070331141553   11.02451667376966
H        -1.94692127360087   20.48259033254005   11.49840158202751
C        -0.73744222380053   11.91880911401527   10.89478059724290
H        -0.37882120947220   10.98343236004477   11.29935899418735
C         2.10200307866049   16.00289105203878   13.12234363358752
H         1.75250196485893   15.81512344156842   14.12780985199248
C         1.90124917822995   14.10055625040044    7.01946611082216
H         1.09118285678854   14.60307639760457    6.51215322400120
C         3.13242933593541   13.67753096094809    9.03433950324588
H         3.29577235056987   13.83490809483791   10.09227140368175
C         3.73267712324655   16.92901012323314   11.62574611026577
H         4.65413662163558   17.46815140240775   11.46194200524115
C        -2.78100550163995   19.05460401503171    6.93922664644962
H        -2.41522950494029   18.12367267343388    7.37063158334100
H        -3.85977963203579   18.99284698437534    6.82831114588435
H        -2.54504666609868   19.87121036171548    7.61708142109024
C        -2.48227312433987   18.16655871626338    4.60416214577565
H        -2.00091671737381   18.33227901186702    3.64272374656699
H        -3.55690089696844   18.11795187330839    4.45174105249503
H        -2.14122710770482   17.21651185173306    5.00144135413900
C         3.28307982129112   16.69639204715965   12.91690260796508
H         3.85316742278376   17.05443219741251   13.76175593552117
C         2.77664064949154   13.29621481462465    6.31422692453453
H         2.64094580819099   13.15597710591322    5.25196880171148
C         3.83057081132309   12.67880393614432    6.96641571960210
H         4.51902212181750   12.05355037473903    6.41676604191777
C         4.00710638079514   12.87386234375256    8.32569253329291
H         4.83368666662006   12.40198152723798    8.83785957151238

