98
CSD_code = HAQGAJ | q = 0 | S = 0 | Stoichiometry = C33H55BF2N4OPRh | MND = 4
B         1.28947467721184    3.41996438599149    6.46656341828034
C        -1.13502745588137    4.09016498584392    6.15193191971786
C        -0.50003462325219    4.00250495091600    8.27725900070775
H         0.17965403762886    3.86449426945506    9.09236610739845
C        -1.81289398324825    4.32306254297787    8.25907939974147
H        -2.47577259969945    4.51897262420390    9.07394576962628
C        -3.55960099259653    4.73653771229570    6.53280615854875
C        -4.57215185520539    4.21406867685371    7.56185006824137
H        -5.57340876000447    4.28514420675384    7.14451368200859
H        -4.55512092673507    4.79540734972889    8.47972410640164
H        -4.37286036822602    3.17143755602888    7.80040571170376
C        -3.64068254648455    6.26565161438726    6.46640418425867
H        -2.98412904017118    6.64844428045039    5.69195790200339
H        -3.34030099096166    6.70166959582050    7.41699772947044
H        -4.65839518660765    6.57802161842923    6.24732774202244
C        -3.90343209187318    4.11933331123268    5.17735367200590
H        -3.11752165317664    4.32214295709247    4.44631435934009
H        -4.83964654139286    4.53462763723828    4.81459733254842
H        -4.01613418526454    3.04311118966460    5.27845821969634
C         0.05500348276148    2.17272645547345    4.65303262649637
C         1.46371473456705    0.90749127784577    5.82548083827166
H         2.24343398851281    0.70448775500683    6.52987776240348
C         0.73985911080141    0.08201285337583    5.03897134737229
H         0.79081016837389   -0.98086433465667    4.93329399690593
C        -1.20467752779486    0.28512148514162    3.51164186803516
C        -1.80386170369102   -0.92883898247986    4.23987361922880
H        -2.73395887601710   -1.21519996135817    3.75490343738444
H        -2.01730728398739   -0.68178863238515    5.27778099664136
H        -1.13804495287811   -1.78742640036179    4.21597197499617
C        -0.61601618035077   -0.17235688882805    2.17325643285351
H        -0.30083508546903    0.68373001510177    1.58552483013849
H        -1.36108913709906   -0.72529750362822    1.60672647551894
H         0.24328051846628   -0.82010812650005    2.33692296524582
C        -2.32124693401782    1.30676423037959    3.30179291996243
H        -1.90564941078163    2.29013262985861    3.05685953981028
H        -2.89993126764983    1.40682655976033    4.21623528787290
H        -2.98276042037725    0.97786384135487    2.50445682526148
C        -1.04964089095997    5.83332656734205    3.98514356739311
C        -0.50984512763521    4.34268536965644    0.58105924104053
H         0.11557905750054    4.73570234203443   -0.22903865974892
C        -1.07894330895563    2.99069421822437    0.15432819831994
H        -0.28225203326394    2.26702728338961   -0.01778575289134
H        -1.72279684746327    2.61105582534945    0.94731171893427
C        -1.90494991229890    3.13057012708653   -1.12331262455895
H        -2.28757792479366    2.15188532425828   -1.42210463186164
H        -1.26891454040674    3.50001357269563   -1.93174157662385
C        -3.06141422473439    4.09909815451414   -0.90532759221837
H        -3.63489689505456    4.21368286274174   -1.82742478161662
H        -3.73027995609745    3.69805447491607   -0.14048683442102
C        -2.52668400542902    5.45144227926862   -0.44881195493368
H        -3.35549539241307    6.13517976997143   -0.25445455450077
H        -1.91510021937931    5.88615946415003   -1.24353704901342
C        -1.68101918110439    5.29921685123909    0.81282547144698
H        -2.29936876138363    4.90474042898351    1.62632860928840
H        -1.32440895312606    6.28367243877747    1.11811411322673
C         1.81087997320020    2.93668472967054    1.73623925259478
H         1.23590348639968    2.02084117773175    1.93154655040329
C         2.93950293988479    2.96832592228679    2.76699820113131
H         3.62712182064927    3.78389263595507    2.53781033221694
H         2.53625280024245    3.14344086325339    3.76450554093385
C         3.70713223985403    1.65048432616496    2.72592553041075
H         3.03609334479593    0.82936741903889    2.99136491880567
H         4.51524413089583    1.66710044870386    3.45973496401617
C         4.27825819031727    1.41578846792118    1.32913227384676
H         4.78326050028246    0.44802188455183    1.28836758368255
H         5.02130140769044    2.18678866126925    1.11127227985454
C         3.17757307833863    1.46983868687825    0.27194459244247
H         2.47836515294046    0.64477876027108    0.43276387381737
H         3.61442002026465    1.34543368637817   -0.72195332048235
C         2.42412314141328    2.79984386062781    0.34195352943372
H         1.66768623720425    2.83164916345119   -0.44272816864880
H         3.13055212964884    3.60600653131957    0.15268560270437
C         1.41239532712873    5.91692744694558    1.96141282139963
H         0.57474468613242    6.60906988666953    1.79590443399479
C         2.08905947157050    6.35161040971170    3.26138959238516
H         1.41460704001755    6.19383457772715    4.10580409525478
H         2.98069685879553    5.75345940862425    3.44602270494510
C         2.47567660143750    7.82540618048559    3.17649163946703
H         1.57370482298208    8.43131270947676    3.05751010737600
H         2.96295067555204    8.13149204330587    4.10381187783157
C         3.40961702073393    8.06909273341252    1.99427047099151
H         4.34543907562563    7.52895227656126    2.15715948427668
H         3.64809466282247    9.13220517965378    1.91631233222650
C         2.76844422048488    7.58440359753847    0.69723316645960
H         3.45938364136511    7.72931760261141   -0.13717472010188
H         1.87057202034243    8.17291823196761    0.49253525547930
C         2.39497213959451    6.10606509590713    0.80701409288859
H         1.97051204906929    5.76875974329792   -0.14062476459032
H         3.30541175788522    5.53783353249947    1.00008866742677
F         1.81725055559498    4.44142126703837    5.68195556650979
F         2.12576152021560    3.11300508212240    7.50873258880392
N        -0.10296329147899    3.86224502243266    6.98262130912557
N        -2.20380592320956    4.36370320057177    6.93966888807568
N         1.02510268116028    2.17587997135185    5.58825220918912
N        -0.14770312883963    0.86707076578514    4.33633065874176
O        -1.40606267860694    6.92734716278545    3.87953711761592
P         0.54813333853891    4.26130146859415    2.13450948643512
Rh       -0.51029475936917    4.09733308434784    4.18892224519275

