60
CSD_code = HAQNAO | q = 0 | S = 0 | Stoichiometry = C30H22O5P2W | MND = 6
W         3.63461822398908    1.82100213054831    5.55810490063572
P         1.65868971644960    3.27198397788456    5.63862230263424
P         3.13799364738365    5.30383671540124    4.13205851888723
O         1.80694599217400   -0.69285642189284    5.11009516464205
O         3.22332830620101    1.45671531507481    8.65019063396821
O         5.48020131126394    4.29719243853775    6.11829621540386
O         4.08055827088889    2.30071253045383    2.48845903190871
O         6.17208389008825   -0.01236335768619    5.54377439759796
C         2.46498574949038    0.23152569699389    5.24842048309335
C         3.38695782072262    1.57663577888188    7.52598512909929
C         4.80460845841328    3.40161706629976    5.90185695072576
C         3.88799555839317    2.11855419912544    3.59949115093994
C         5.24464756556587    0.65572758663463    5.54711931691648
C         2.07658198341851    5.05935065372743    5.64909958719174
C         0.65243014415181    3.90069267285460    8.22036168725091
C        -0.09738762000050    3.59992151450678    9.34484511256748
C        -0.87679292536535    2.45684921837794    9.37915591157216
C        -0.90801864891940    1.60638452807850    8.28449541672842
C        -0.16131992012326    1.90265200683229    7.16181274598308
C         0.61775268229874    3.05753104516348    7.11656956154516
C        -0.75480555180575    3.99165899761629    4.42541058507507
C        -1.72226103923439    3.92107028012446    3.44265913693159
C        -1.57699726165734    3.03492755287290    2.38672658267473
C        -0.46498072629341    2.21410284609207    2.31843187126643
C         0.51032817034066    2.28810728226713    3.29735450572180
C         0.37611499610414    3.18323236205112    4.34966000642386
C         0.87546811278152    6.69735398622085    3.14206546767875
C        -0.12862395706976    6.92312859427578    2.22087008958755
C        -0.22499752953548    6.13194295700955    1.08699058109561
C         0.69310599549060    5.11988597272447    0.87086204498675
C         1.70004719607822    4.89189286501880    1.79213612080884
C         1.79253390251519    5.67069878632254    2.93844226151226
C         3.85608820675091    7.87604166012297    3.33417370474091
C         4.39372357549091    9.13830617797394    3.49783037003270
C         4.84297863716150    9.54741654579920    4.74268551206252
C         4.76638481511232    8.67957741297255    5.81831249703700
C         4.22946093819795    7.41510299043082    5.65713270904333
C         3.74112773389635    7.00938632529915    4.41921103048186
H         1.20183291108751    5.71597810833540    5.66756882755565
H         2.70054925478775    5.22707018668267    6.53246706283959
H         1.26522741568725    4.79113095520833    8.21172545867814
H        -0.06719728055072    4.25922510436060   10.20012110923110
H        -1.45540293649712    2.22429212772463   10.26062549092745
H        -1.50983559044163    0.71004752177223    8.31182704566990
H        -0.17197443365005    1.24147404466732    6.30366349923326
H        -0.87869951743468    4.66838870864958    5.26077108083657
H        -2.59482257606341    4.55506997833890    3.50000752174635
H        -2.33617033320075    2.98186349983784    1.62069222236329
H        -0.35576613677450    1.51581837706936    1.50189717084893
H         1.38387092373724    1.65019341785887    3.24987871268770
H         0.95843631283631    7.33311462175483    4.01379050746237
H        -0.83750666327526    7.72228073575032    2.38392148168051
H        -1.01222317086271    6.31171539972763    0.36971105045455
H         0.62670682901950    4.50831493916519   -0.01686063813468
H         2.42351796005474    4.10681991553828    1.62505235993389
H         3.51426285942592    7.55648582306648    2.35916220245530
H         4.46680397099878    9.80386856915286    2.65012419125139
H         5.26156485359277   10.53456613981787    4.87112148336203
H         5.13282035375614    8.98567983969443    6.78749094750120
H         4.20374857317611    6.74350309428453    6.50317191494379

