95
CSD_code = HAQNOC | q = 0 | S = 0 | Stoichiometry = C45H41BN4OP2Ru | MND = 6
Ru        0.07469630320062    4.47111226730517    9.18270383921410
C         1.56735657790144    3.49386514335277    9.58822574183952
O         2.48794461504729    2.82354051757164    9.78316433214089
C        -0.83649364463834    3.47804817488289   10.78383275825607
C        -2.01639177567973    2.87882842197010   10.84023149085200
N         1.12686451274489    5.58922761029258    7.63194152366242
N         0.61513601568300    6.35086518616322    6.67394393844240
C         1.59719049752527    6.95735331522480    6.00217866736120
C         2.80535990645679    6.58028691322023    6.55453905518877
C         2.45178597429254    5.72002177812655    7.58547579915833
N        -1.64995392082220    5.57847694971718    8.64203088463223
N        -1.74642563496060    6.42135195587317    7.60620853487059
C        -2.88315392664341    7.12040711124258    7.70506365292877
C        -3.55383984091794    6.72174466487183    8.84325785389213
C        -2.73403146358973    5.74707197227504    9.39705599594474
B        -0.87739166242953    6.43478009029230    6.32290112749411
P        -0.54335043075407    2.73132888944016    7.74720843474882
C        -2.87046183888316    1.13530302986121    7.83417390975018
C        -4.22298975492857    0.90819489579545    7.65106209550839
C        -5.02992708227464    1.89046788118860    7.10152148389002
C        -4.47792335084177    3.10623418335551    6.73264403613911
C        -3.12682022842469    3.33775764497715    6.91296198175517
C        -2.30728307859015    2.35210531859830    7.45951517181299
C        -0.60484315212495    2.94531396314549    4.89009413264503
C         0.02906917084280    3.14521983410767    3.67537643415534
C         1.40061022798665    3.32307925509379    3.62150822521204
C         2.15010440762321    3.27661221317364    4.78652719025937
C         1.52224983934944    3.07300617867011    5.99912457747248
C         0.13841115629357    2.92277286422604    6.06295656461334
C         0.33424165714210    0.14986741248227    7.07548943462833
C         0.80513626217879   -1.12027444745588    7.35262441192085
C         1.04653439572864   -1.50439971278853    8.66154444867784
C         0.80413245089506   -0.61492111283049    9.69456799028057
C         0.33270734421377    0.65698045647433    9.42147802977739
C         0.10347590005378    1.05546282543495    8.10902521426557
P         0.56280363113302    6.23780196296900   10.66643864685205
C         1.31845049712608    6.06030279261162   13.41010881743008
C         2.19877455051806    5.70494143283158   14.41851300854149
C         3.42011110231682    5.13014254722981   14.11391900950992
C         3.76644876733656    4.91349288297892   12.78961746857288
C         2.88803059206090    5.26208242862781   11.78218220989573
C         1.65257743145757    5.83581633143989   12.07979266407359
C         2.73183954462744    8.04325747870616   10.20759277555765
C         3.32501235985776    9.08716263822561    9.51769648600029
C         2.63562693852745    9.74924434604162    8.51704180131742
C         1.33674117795989    9.37459796358593    8.21314285322597
C         0.74165272258083    8.33423223357602    8.89876214705486
C         1.43555301519177    7.65087380393367    9.89802096049947
C        -1.00146579894042    8.47481480908799   11.49868163262807
C        -2.06490936567919    9.04350541079510   12.17952185303104
C        -2.94056858163702    8.25228292683478   12.90154548890248
C        -2.74451256173274    6.88152086963965   12.94999671304864
C        -1.68804978021627    6.30944439962224   12.26768190055183
C        -0.80912363671803    7.09836592586507   11.52536673203371
H        -0.24562476240727    3.41966313992452   11.71374069236030
H        -2.69505803102407    2.83791733792461    9.99904266575631
H        -2.38168492956623    2.38692043667930   11.73714935367817
H         1.38323618033040    7.61101106508903    5.18156952004981
H         3.78864439647625    6.88565965779995    6.26112713862456
H         3.09547593710022    5.20060684001810    8.27217891415892
H        -3.14764766907909    7.84862343550871    6.96535172090191
H        -4.48916061322404    7.08235443043693    9.21889537766599
H        -2.89250325585919    5.16867106979925   10.28511623479123
H        -1.16481900355526    5.48459191834601    5.64854479549880
H        -1.07215459717135    7.46849106161008    5.76296957023441
H        -2.25321169143659    0.36796954480783    8.27815669652876
H        -4.64956735394211   -0.04010585613599    7.94454578486190
H        -6.08615126886480    1.71046708119410    6.96466948482012
H        -5.10132728424319    3.87939575685838    6.30725942718565
H        -2.70160355751794    4.28570375668192    6.62066493583788
H        -1.67617123182440    2.80629151380092    4.92029296910939
H        -0.55468087841639    3.16731945861243    2.76648466390342
H         1.88685533280140    3.49224629609617    2.67199844823615
H         3.22210257551236    3.40418412076059    4.74818654233948
H         2.09876188393277    3.02279478345926    6.91492379189229
H         0.14536000349342    0.43988112928235    6.05131310706147
H         0.98478779330094   -1.81298077716536    6.54315491813954
H         1.41957405832758   -2.49547372394341    8.87453681966138
H         0.98411545989722   -0.91107140997103   10.71760026737837
H         0.12977053505369    1.35034737431212   10.22586956629543
H         0.37147975458435    6.51143241161293   13.66684639072541
H         1.92567610458963    5.87962155274979   15.44910020754815
H         4.10109380172936    4.85199095488262   14.90457807136500
H         4.71938565054221    4.46881780834903   12.54308136495164
H         3.15674193223755    5.09564901953738   10.74804593781669
H         3.28255947725724    7.54108603237161   10.98939284643163
H         4.33461488739226    9.38219010255888    9.76465124622288
H         3.10717211567165   10.55661495174882    7.97664910927806
H         0.78833117385764    9.88851656650019    7.43759923972976
H        -0.27322906487228    8.04594504741105    8.66083567482994
H        -0.32378876639258    9.11385895690515   10.95226630078434
H        -2.20553323062793   10.11416911297036   12.14564317004055
H        -3.76961509948162    8.70150509320519   13.42813613564134
H        -3.41779272274020    6.25682810566903   13.51886421951679
H        -1.53463307601473    5.23971801292003   12.30008454586495

