63
CSD_code = HAQSOH | q = 0 | S = 0 | Stoichiometry = C25H32INiOP3 | MND = 5
I         0.25520356163709    8.27606657581125    9.51365400117982
Ni       -1.20238367121177    8.50387286112151   11.52580494122875
P        -2.07864681909397    6.36560817424128   11.74870819678024
P        -2.69732642948853    9.72435968459269   10.45718670358597
P         0.52088964775854    8.58335409389082   12.90617604508509
O        -1.94702886834178   10.26268375060750   13.36960675514455
C        -2.07369072230614    9.12436640801544   12.98584475782818
C        -2.94896421699908    8.13629888401288   13.66508025189444
C        -3.67869255385473    8.55535952347878   14.77596798765303
C        -4.52821370244521    7.67517501970088   15.41623735591373
C        -4.66126478831443    6.37368993245853   14.95154466138618
C        -3.93947616011636    5.94816086997194   13.85087750558886
C        -3.07302052601506    6.82293322322135   13.20677302557142
C        -3.27263288082313    5.27379448932715   10.91093613084436
C        -4.46908001980614    5.86747619001352   10.51352704299497
C        -5.42414632842684    5.13847136045025    9.83460828651261
C        -5.18705722110996    3.80626615958312    9.53299697883891
C        -3.99405155261190    3.21460380068944    9.91178518488187
C        -3.03517043240939    3.94231791050903   10.59483165803482
C        -0.87870019658098    5.17749293014081   12.42558175332949
C        -0.80218587390019    4.80412055430627   13.76177051598028
C         0.19917236842909    3.94412497354210   14.17962576781505
C         1.12568181451000    3.45512541349465   13.27349237890581
C         1.06047421063357    3.83489131690497   11.94141268660054
C         0.06909986197661    4.70012335352294   11.51952491659298
C        -4.33177588083192   10.13871406879004   11.18662664950033
C        -3.20541299454465    9.20332349463588    8.77760267293366
C        -2.03491558129827   11.39897273232293   10.15866534532751
C         1.98656981372540    7.51571990699236   12.65674363450230
C         0.32296248420081    8.39591463886485   14.72162989108703
C         1.25568997993448   10.25080548396008   12.79464842672134
H        -3.57002760062795    9.57541018959708   15.11797419910698
H        -5.09396967728974    8.00218556514802   16.27625797725592
H        -5.33154528749601    5.68946284555403   15.45134150890027
H        -4.04539743768882    4.93653970618263   13.48308320190147
H        -4.64230561443402    6.91134596562577   10.74991659273078
H        -6.35162997655386    5.60582786007229    9.53591778965790
H        -5.93053704613416    3.23290913489954    8.99949112090557
H        -3.80671164830943    2.17762776459307    9.67350491980627
H        -2.10688303474360    3.47238064150795   10.88604046331831
H        -1.52012352596986    5.18229923232952   14.47739183941521
H         0.25596517400265    3.65561629129064   15.21979186591040
H         1.90403926661066    2.78503536404065   13.60780893785232
H         1.78988506714158    3.46755781596805   11.23495578835994
H         0.03071196771279    5.03012387592685   10.48899593819007
H        -4.89493833249956    9.22999247417216   11.40030446084226
H        -4.89726381506848   10.75529101425139   10.48797251709087
H        -4.19123643612613   10.68740229315362   12.11644797524354
H        -3.61165811100760    8.19254667847256    8.81138836303389
H        -2.33502419949920    9.20100898906432    8.12412018596669
H        -3.95749145338508    9.89195048905694    8.39269023706013
H        -1.79878666322498   11.85915155310625   11.11867285928538
H        -2.77351809342091   12.00196675781565    9.62971834172790
H        -1.12434686255370   11.32131549974594    9.56414066032058
H         1.72266871939366    6.47750480000542   12.85231448643657
H         2.77314123844186    7.82850628487564   13.34372273991971
H         2.33758412247536    7.60164300644225   11.63045249743355
H        -0.37159655918522    9.13994956494493   15.10715056401329
H         1.29066947981920    8.52310262545498   15.20679370393254
H        -0.06133511398823    7.40026701718233   14.94534165666118
H         0.49098026255855   10.99122274072158   13.03078770900624
H         1.61068540936976   10.41193715336941   11.77595736855550
H         2.08658945939165   10.33823102624852   13.49527941991355

