81
CSD_code = HAQVUQ | q = 0 | S = 0 | Stoichiometry = C24H52OsP4 | MND = 6
Os        3.61126207115118    9.44456986474957    2.76665783822021
P         1.63605129009737    8.56426739513724    3.70359444389368
P         4.42290016055844    7.31887722741889    2.19381502452515
P         2.76595296792128   11.62013722322713    2.85222769583190
P         4.87910957433768    9.65676313603626    4.73485597702888
C         5.18583243587792    9.93959880458105    0.21938766170812
C         3.93454300854837    9.54359787606735   -0.25286888138036
C         3.74933648053658    9.29035939212596   -1.61442285508039
C         4.83794987850856    9.37437074569130   -2.48597667341447
C         6.09939545171463    9.72856477256215   -2.00299207232167
C         6.26239471196223   10.06917324066538   -0.65954874955176
C         5.32700919147541   10.17862338329188    1.69853008883743
C         2.82014124869127    9.47725197980675    0.75781635650565
C         2.39169034209173    8.92011598905137   -2.15472431590200
C         4.66777781247297    9.09046257254500   -3.95589643056516
C         7.28299721044214    9.73564758467875   -2.93504263725917
C         7.59420820173357   10.56097776841637   -0.15730028902278
C         0.20687434908111    8.28932886930454    2.55967764821659
C         0.72208798555054    9.44749243452050    5.05288597498613
C         1.55823298206268    6.89854691527004    4.50793967461482
C         6.04052388335287    7.08203952523589    1.33987069157222
C         3.43522336640595    6.32820105086777    0.98967701699398
C         4.67659679554624    6.00264961186102    3.49065448282527
C         3.55190101345549   12.90559398186206    1.78965371780891
C         1.02433424721630   11.96012469095921    2.31076715596219
C         2.67690827430854   12.61180833965134    4.41898519813539
C         6.05101296683335   11.08933075088958    4.73675402967572
C         6.14349855831637    8.40318525821458    5.23245013522795
C         4.15647814050249    9.87875587245610    6.42704291199201
H         6.24868445248164    9.67778121460360    2.03543773108273
H         5.52128384714337   11.24948821555546    1.85199323244741
H         2.17691652235445   10.34778023871183    0.55277263557760
H         2.18290337959006    8.60829627200321    0.55209456689253
H         2.03254311159378    9.68524696586349   -2.84445584421231
H         2.42963659525389    7.97068031933139   -2.68963275808860
H         1.66289760634862    8.83142599514119   -1.35575277476627
H         4.99050672789776    8.07443571373604   -4.19230645898581
H         5.26064623928576    9.78097182755296   -4.55179695290614
H         3.63279044220111    9.19183920665553   -4.26495168449182
H         8.20981692319959    9.58349433180825   -2.38946188666265
H         7.19928292843907    8.93983088824551   -3.67113981163855
H         7.35465251015360   10.68529237986525   -3.46874288749007
H         8.27601914562984    9.72892909570393    0.03141385979232
H         8.05953612488723   11.22711370551720   -0.88116832170755
H         7.46940371060421   11.10971971240300    0.77180667313272
H         0.04552588750261    9.16902915553122    1.94252565700728
H         0.44340931839784    7.45449353907280    1.90246673537687
H        -0.69945912868767    8.05904722153766    3.11964165574776
H         0.47217554627341   10.45961680602472    4.74589400854640
H         1.35952906963211    9.50098558689787    5.93289633534777
H        -0.19398249869620    8.91362442960595    5.30695508998641
H         1.90720148134662    6.13954699982697    3.81128072161700
H         0.53418894417373    6.67064163502449    4.80499492109053
H         2.19424146656463    6.88891097635385    5.39212210885194
H         6.02930350358077    7.61861604773504    0.39434086507908
H         6.85458773126252    7.46448324896731    1.95204101917321
H         6.19520515426695    6.01788174706497    1.16052686017238
H         3.45881638583143    6.83560928168552    0.02820854079414
H         3.86963868583534    5.33438660815095    0.88206031234801
H         2.40351581597682    6.24002570061753    1.32410582772063
H         4.29066602275085    5.04529351451979    3.14447433298418
H         5.74034377438746    5.89943770853325    3.69355712132251
H         4.17420068173793    6.27354886894193    4.41350253754681
H         3.70683245291710   12.48796156881238    0.79663729659603
H         4.51524996697742   13.19882733179170    2.20201418642505
H         2.90708773841734   13.78218985765701    1.72857965696929
H         0.95717387960733   11.88625121265355    1.22785501580904
H         0.73879559290456   12.96736023410964    2.61344328791355
H         0.33484669733305   11.24500328662983    2.75045428980144
H         3.64579941891545   12.63050775020054    4.91082654556341
H         2.37107441548931   13.63421231783675    4.19696257703362
H         1.95453280974369   12.16210153333725    5.09715295432456
H         5.57324406888439   11.97843363346848    4.33443122913372
H         6.88918502646655   10.83627616045711    4.09059977669799
H         6.41725022968004   11.28941148130258    5.74372068427625
H         6.71333492698014    8.10773792945649    4.35380336333164
H         5.65744908402565    7.52568476846778    5.65200685327471
H         6.81839248311665    8.82773710685841    5.97631704261833
H         4.94224715558269   10.02583585193049    7.16813565191661
H         3.48165013809276   10.73100314712168    6.44027737324407
H         3.59180120490157    8.98184341196587    6.68040742631729

