79
CSD_code = HAQVON | q = 0 | S = 0 | Stoichiometry = C27H45CoO6 | MND = 6
Co        3.72155665966797    0.70398635149446    4.09688852745272
O         4.33217193178537    2.45884309423025    4.14697845887338
O         3.88377893708700    0.51822834736342    5.93618516984234
O         3.59862362234956    0.81426698648332    2.24929112180996
O         2.01831624998651    1.41184074915739    4.33826684425313
O         3.02196488234251   -1.01203250952109    4.00127471962666
O         5.46558393684821    0.08702733944657    3.95269008742289
C         4.41305800579636    3.20800090470454    5.16448315840570
C         4.20600286224786    2.80897668768322    6.49471206993453
C         4.15282936245651    3.82646543339640    7.61070852782862
H         4.68612157946741    3.45352007409514    8.48677229436678
H         4.64125398884948    4.74991655658723    7.30569044310953
C         2.70658344073475    4.14932358132118    8.02090207578713
H         2.21206323497063    3.23771330395893    8.35954041168501
H         2.72454467021705    4.84839730782458    8.86134616410750
C         1.87857492969376    4.74421768588897    6.88502817914325
H         1.93655460770164    4.07999411091256    6.02067529865058
H         2.29178358831760    5.71503411149989    6.59992133274953
C         0.41997142998588    4.92360021077236    7.28981790342933
H        -0.02611275686479    3.96376545001657    7.54104693089621
H        -0.15359996428137    5.36536218024837    6.47792889924894
H         0.34038768363559    5.57437542385945    8.15866890800159
C         4.01736887978004    1.44685862295163    6.78479884133504
C         4.03415647478645    0.96674167289022    8.22223424303380
H         3.21969596787830    1.40133241201431    8.79369357823130
H         4.97475788934985    1.23545505542248    8.69834678462970
H         3.92998222154625   -0.11513435156468    8.22091267681898
C         4.82717943872499    4.63044159425300    4.84047685720213
H         4.99663007452180    4.69548512823499    3.76874949127441
H         5.74632294730002    4.88715776322682    5.36215382860336
H         4.05099061264554    5.33611888937080    5.12116146337738
C         2.67729652192623    1.34864942753562    1.56718447809135
C         1.49764866642606    1.91882486214794    2.07473046799454
C         0.47455743190097    2.51445253877249    1.13482102378555
H        -0.03791506331208    3.33744886542335    1.63004723409504
H         0.97060120936831    2.92697168840926    0.25617077266177
C        -0.55885277372299    1.47744763284836    0.67458243263322
H        -1.09493233480361    1.08403677753639    1.54016838312654
H        -0.03642063301394    0.63606638498808    0.21485913642600
C        -1.56614819724438    2.04181902823808   -0.32840003482163
H        -1.02785636198530    2.49599058725171   -1.16368549319645
H        -2.16048060198181    1.21681752913013   -0.72908185199312
C        -2.50948781404857    3.07118043452592    0.28401757675093
H        -3.03196795633023    2.64715789033132    1.13907818695994
H        -3.25091972965858    3.38603163781031   -0.44708849983134
H        -1.96633728391063    3.95276427130897    0.61401619440939
C         1.25287445133708    1.90145126256647    3.45560654154910
C        -0.01049641162433    2.52501218559782    4.01468844881285
H        -0.05401303640264    2.31461343442871    5.08007002858021
H        -0.89655829553134    2.12536275740449    3.53127393016184
H         0.01044214620123    3.60384464203345    3.87072603808461
C         2.93881012500195    1.35465904928746    0.07440625388506
H         3.09385629737001    2.37501429517243   -0.27074577756196
H         2.10887079825684    0.92086631579215   -0.47545024713422
H         3.84137154950324    0.78032712600144   -0.11657842986620
C         3.65416080103139   -2.10828954061055    3.98634668558973
C         5.04971136281358   -2.25406505347392    3.96188603822853
C         5.86664217710982   -1.11243684363651    3.93692855853248
C         7.37487653437006   -1.25799024334106    3.90534492678512
H         7.81040911968993   -0.26983907548085    3.78337840051923
H         7.69289629692009   -1.89752239375063    3.08764533622268
H         7.72789813973000   -1.68465515415748    4.84229080303639
C         5.67036275146701   -3.63176769397123    3.92739905211615
H         6.63527694935448   -3.61614731726457    4.43469060838743
H         5.03956962761807   -4.33754645732794    4.46821674601743
C         5.87485036662275   -4.14992506723745    2.49783648684816
H         6.50176408318401   -3.45148425185103    1.94047522795768
H         4.91334532678654   -4.19609504907754    1.98301845185666
C         6.52262820504133   -5.53285492633766    2.48552979971736
H         7.48639614299646   -5.48370961068533    2.99818009693474
H         5.89097810017177   -6.23165224214677    3.03929394389474
C         6.73068650352972   -6.05397352467074    1.06857786665166
H         5.77998515204336   -6.12495582848310    0.54439962510364
H         7.18748202629264   -7.04101531619362    1.08582341769407
H         7.37977454047196   -5.38522060683876    0.50735184291155
C         2.76365015619618   -3.33424495001750    4.00833210329061
H         2.88751737348654   -3.86618413958320    4.94950854798297
H         2.99952730951043   -4.00901042815183    3.19095355198537
H         1.73037086027729   -3.00840507850353    3.92372979698756

