71
CSD_code = HAQWAX | q = 0 | S = 0 | Stoichiometry = C28H36N5PRu | MND = 8
Ru       21.41642075003268    2.13303669679605    4.76713947706673
P        20.55260975643461    2.87206946516130    2.85630352147938
N        18.73091584753982    2.54000153176201    6.17169816963701
N        20.84781204493286   -0.87931537050031    4.19750952872376
N        18.86611810989886    2.70957331344486    2.59344631818949
N        21.15003420915729    2.30389807101517    1.36579747896834
N        20.65989489909214    4.55873338078689    2.55617363211665
C        22.95324067002155    1.55905705295963    6.22734756952206
C        22.54413960839606    2.90067895875012    6.53618352491032
C        22.84989294995133    3.73156041604834    5.42344318346778
C        23.49594097110246    2.90887977453466    4.42916392324885
C        23.58106322305250    1.58289590183982    4.93255020566496
C        19.73032915418448    2.33080190255110    5.59535678340571
C        20.94596018409158    0.25275288526761    4.37127496856461
C        23.06180337533404    0.41953956432173    7.19855265473139
C        17.41809841015306    2.67490869626157    6.67237867471093
C        17.50993134969007    3.03120488427815    8.15911829880701
C        16.69058673119240    1.34224383135919    6.47336967692189
C        16.72249087363677    3.79179234750832    5.88641344180505
C        22.06265497061613    3.37233391603458    7.87639546999564
C        22.84681208301284    5.23207504000602    5.43791386535418
C        18.18975021148700    1.57118904091353    2.96310580436976
C        16.88917410218797    1.69043707586912    2.57765540690360
C        16.75192911229001    2.94977174804063    1.94590027847381
C        17.97537551142906    3.54667345330195    1.96264745013625
C        24.22699921508060    3.43793845657551    3.22877098255900
C        20.78411822903739    2.68178086083579    0.09312168106118
C        21.48536878110507    1.93259462583494   -0.79950015760166
C        22.30547635250289    1.04608617702047   -0.05770313747143
C        22.07395085440507    1.29143941109644    1.25904152031675
C        24.39381397136591    0.45425751787511    4.36734966796542
C        20.06032948579371    5.44590605550785    3.41681016367137
C        20.46717700182403    6.70700461916295    3.10414762327866
C        21.37557273400637    6.59406244252311    2.02415781718152
C        21.48537003136502    5.26936150758404    1.72226635594822
H        22.90280963771979   -0.53329292399486    6.69620516480844
H        24.05917460083462    0.41016434609069    7.64584011839907
H        22.32815582529763    0.51036382421375    7.99736172548431
H        16.51276319705832    3.14959388524966    8.57417893575347
H        18.05758493874607    3.96146864305063    8.29423007357263
H        18.02462520189914    2.24326305969965    8.70410879754333
H        15.67773324149366    1.41184317315554    6.86113093563480
H        17.21505159644236    0.54434861886919    6.99343185498666
H        16.65209309315867    1.09541093274825    5.41534863023991
H        15.70257338381855    3.91267703190452    6.24125121972810
H        17.25006254894430    4.73466708976602    6.01557514917557
H        16.69904931906233    3.54662748468164    4.82675148959468
H        21.45943950166462    4.27406478995240    7.78593086633330
H        22.92268497690042    3.60033964719412    8.51068842367283
H        21.46624479678279    2.60890163047151    8.37377007742461
H        22.81705743323803    5.64446161557406    4.43142522915343
H        23.75609821968894    5.59423685954453    5.92512762647465
H        21.99130620532508    5.62369733691052    5.98619593282793
H        18.70752049271399    0.77059646021569    3.46191146635010
H        16.11177859369963    0.96502332180725    2.71807324242111
H        15.85155489010307    3.35814284516214    1.53013527042204
H        18.27200689552790    4.50828526851557    1.59128399737170
H        24.24830385737935    2.71333102537281    2.41524680032099
H        25.25860041259772    3.66682265756822    3.50788323653289
H        23.76888316290754    4.35384338298620    2.85722167273067
H        20.05078019207713    3.44821939491472   -0.06907091594636
H        21.42437151702625    1.99514509362375   -1.86855820614188
H        22.97675694162664    0.31547979676818   -0.46397063283339
H        22.45232848674906    0.81294936855989    2.14427002442635
H        24.70993271593898    0.66508405747046    3.34751945159548
H        25.28721533237736    0.31110529082069    4.97958557139307
H        23.83109261968166   -0.47920507676566    4.36907551597939
H        19.38761290567009    5.08626876557303    4.17482888866405
H        20.16003630174063    7.61672845189166    3.58184682130771
H        21.88339167130026    7.40182875370687    1.53427243201045
H        22.06806952732556    4.78088884441083    0.96499128855881

