127
CSD_code = HAQXIG | q = 0 | S = 0 | Stoichiometry = C68H40BF15O2Ti | MND = 9
Ti        5.22476174484609    1.71491939169787    6.06768178410585
F         6.93124894191814    3.93477448565885    3.95094822558192
F         5.71924638813225    6.05017237231418    2.81415395072950
F         4.56981371128699    5.80820311816987    0.33698663309158
F         4.73174912947286    3.42005321729873   -0.98068347248916
F         6.10925350497167    1.38739782443675    0.05051460170456
F         7.27688403912678    1.42653758400575    5.74757889102954
F         9.19983709533160    2.06616910854917    7.41219231422289
F        11.57145646258412    3.19635266942450    6.49746488647790
F        11.88350955784385    3.54463781666770    3.80278304976292
F        10.00187534359961    2.76659287363984    2.09734114571728
F         8.72175399252342   -1.04820798291923    3.58175225036109
F        10.24895673260828   -2.69349193998752    2.14569721147864
F        10.89499221579300   -2.07749590123569   -0.45068537650431
F        10.01034996744998    0.28508215721764   -1.51032204948838
F         8.52101322438812    1.94362022068447   -0.07467706680842
O         5.01041106071272    3.32484126768890    5.64336723151956
O         3.80242746083236    0.84621112023722    6.21663182076471
C         5.33358720104300   -0.06507108464451    2.38846969821076
C         4.12983471961464    0.56429739129845    2.10085717703470
C         3.32368530863402    0.12134391079973    1.06852641714339
C         3.71425109745109   -0.95843046164492    0.29798643736251
C         4.90442466353398   -1.60380783003383    0.58378744742850
C         5.70095862665859   -1.16812003394724    1.62505075793968
C         6.24076610453147    0.49240895074842    3.44275022931465
C         4.65807544367419    4.60406447659523    5.49318345240556
C         5.44870352887886    5.59130391936461    6.11416964621527
C         5.10608394153460    6.93125210731289    6.02075373371154
C         3.97345138723975    7.31932076673842    5.33062620267011
C         3.23472021709409    6.36701206364802    4.66034806468489
C         3.57155896725466    5.01287112021824    4.68491856484295
C         2.58273157977127    0.39682054074483    6.50914813384583
C         2.07266375443253   -0.73141012982221    5.83431723372148
C         0.77709961157359   -1.15676672036807    6.11207490475801
C        -0.00535276606598   -0.50928745340840    7.04856583571697
C         0.51429863671570    0.56391263764469    7.74826492122627
C         1.79581663307983    1.03406590103672    7.49057903623652
C         5.76761614604567    1.48273701580939    8.07742127787850
C         5.80815176354843    0.00557655708998    8.17117075959209
C         4.72244219842617   -0.71355029124322    8.69193987309178
C         4.73745950660194   -2.09340698754569    8.76048774097615
C         5.84463094838467   -2.80504185894014    8.32526731323373
C         6.94540576570813   -2.11510281553412    7.84446021087932
C         6.93314913806449   -0.73344015962030    7.77370862877433
C         6.68567147415524    2.61104864759849    2.00141608870806
C         6.47972584885336    3.80923900217360    2.67452992982779
C         5.80968175591103    4.89754075745355    2.13441733145984
C         5.23193052095530    4.77914156992280    0.87766190497332
C         5.33175488939889    3.56861457982207    0.20479346780159
C         6.05079629275815    2.51698768934561    0.76385274991262
C         8.57424152880092    1.97905534231966    3.81553931412568
C         8.46228689172420    1.88851105433993    5.18916252953604
C         9.43071748777758    2.26289342602646    6.10800202891763
C        10.61458691678635    2.81918165823451    5.64953494892609
C        10.76820968571244    2.98551575070616    4.27561902957357
C         9.77219581563890    2.56612008052000    3.39802048760646
C         8.41533170433344    0.45820474611137    1.77457174256367
C         8.96076676445148   -0.71382631693697    2.29346772851069
C         9.78055980090589   -1.57375201452956    1.57548843278075
C        10.11739229894387   -1.26015811804037    0.26537483675122
C         9.65590848428110   -0.06570682096684   -0.27023063992785
C         8.84062867404206    0.77268631504624    0.48658006232229
C         6.68576840390081    5.24204544266044    6.84624248721722
C         6.64241910160117    4.58868202605003    8.07275876397134
C         7.80738204616646    4.39467762004986    8.79835192640578
C         9.02238001656147    4.83433550116430    8.30061626327187
C         9.07330010040855    5.46293321053991    7.06682386975494
C         7.91185607909342    5.67356448602007    6.34617648515248
C         2.77975008420222    4.12011045489019    3.81347731026928
C         2.33602558504991    2.85999859091027    4.20537931610351
C         1.47935357054323    2.12291520291392    3.40296726818374
C         1.08092690087016    2.61370020375089    2.17236520018582
C         1.56483475189834    3.83820479722114    1.73966180745958
C         2.39525096726383    4.58516255375980    2.55183224099039
C         2.90196811593342   -1.51610796767487    4.90290174281574
C         4.23135377075933   -1.80892778319146    5.20682689045096
C         4.95276416512242   -2.69154534558532    4.42307345750193
C         4.36914347569284   -3.27794628363152    3.31366904218643
C         3.06652324534845   -2.95402686911763    2.97362405181975
C         2.33978593732033   -2.08080735188709    3.75865873056495
C         2.32594409894561    2.13162139302032    8.33415531328239
C         2.41492532259518    1.92327828458834    9.71134301089566
C         2.88787424457286    2.91654283271219   10.54943854725583
C         3.26091763704619    4.14559254015339   10.03003931283259
C         3.13831643913076    4.37894177459214    8.67029379710414
C         2.68035323444557    3.37900506489343    7.82542524723936
B         7.46996879695381    1.38914032018272    2.73819205226738
H         3.82731977613650    1.42211756889389    2.69145943730585
H         2.39734034741906    0.63421526309346    0.85823648343633
H         5.73306259188714    7.66333312583523    6.50741210713497
H         3.68611602749832    8.35807418286173    5.28978247236412
H         2.36567784344332    6.67083963309397    4.09707599568920
H         0.39490353046907   -2.02869179329662    5.60329046758689
H        -1.00720390538542   -0.85478958566233    7.25105534102945
H        -0.07622804155376    1.05848777817811    8.50534823204550
H         3.86094431369560   -0.17072024914363    9.05395910833638
H         3.88234474906501   -2.61768627201819    9.16148771986180
H         5.85543841635714   -3.88270598468418    8.37604009957897
H         7.82666106187552   -2.65557460095509    7.53101096081587
H         7.83201279921341   -0.22349100046519    7.44952616572667
H         6.63663328453747   -0.33166938008478    4.04386355019421
H         5.62019388632292    1.15969837634409    4.10340470626759
H         5.68634472475089    4.28271950247793    8.47811330735196
H         7.76471897524404    3.90877949284231    9.76230892741676
H         9.92753887967109    4.68506837611040    8.86941934634611
H        10.01940098953542    5.80781152783075    6.67550301052417
H         7.94363870986122    6.18332670109502    5.39481681570653
H         2.63245355053387    2.45951343338302    5.16334673375552
H         1.12729978021322    1.16223724345673    3.75078809957918
H         0.39888605175778    2.04952282147700    1.55422896580904
H         1.28378115503149    4.22015833150023    0.76971119640601
H         2.74815682112962    5.54464030306802    2.20620269124809
H         4.68698799409754   -1.39497025854597    6.09850264710177
H         5.97065087245025   -2.93357527537809    4.69329369122975
H         4.92578806594777   -3.98266709744580    2.71556002473461
H         2.61271814012809   -3.39166409105475    2.09743198985477
H         1.32420950195483   -1.83529730611968    3.48475216517781
H         2.10150748879201    0.97529905060219   10.12613603093826
H         2.95545365348985    2.73454349335656   11.61168530155842
H         3.62476637821664    4.92354920353877   10.68427452980774
H         3.37813617920656    5.35016098561872    8.26050763775173
H         2.51302854196614    3.61348293251231    6.78475007313766
H         6.76377592711624    1.90872631204716    8.23912035228063
H         5.06923226216735    1.89657325786182    8.81051262845563
H         3.09623818869994   -1.29361201168882   -0.52106345990506
H         5.21505970985115   -2.45114171772080   -0.00912045830544
H         6.62198315384838   -1.68643125620673    1.84070906457936

