94
CSD_code = HARJIW | q = 1 | S = 0 | Stoichiometry = C44H44FeO2P3(1+) | MND = 8
Fe       11.32939916937846   15.25822199245649   12.84354030318964
P        10.57759141648314   17.28617435111182   13.31620365468061
P         9.44745652456925   14.22996633670415   13.24734157937566
P        11.07367073175443   15.44514624250704   10.69545175048279
O         8.62766427360449   15.18664719684750   14.26753382906026
O        10.21410723118517   16.72637735762534   10.20642706856799
C         9.50206519910565   12.62979740936533   15.54954136914458
H         9.28398403069249   13.53911857126601   16.09248553231201
C         9.60492934907125   12.65747440132025   14.16299795155641
C        10.34202111203292   13.99877677782384    9.85246831263801
C        11.30123940097827   19.37563560309666   11.55825689420751
H        10.34473469818144   19.22883734167103   11.08356040774389
C        10.55750625425085   17.73739968025377   15.08900736206086
C        12.28201194689717   14.29154083119389   14.49552378058374
H        11.88302057022544   13.90445172934151   15.41643380669297
C        12.86590004675761   15.55548742556376   14.30811933936216
H        12.95556772909669   16.31216898734125   15.06756928674963
C        11.66150503634844   18.60496176471010   12.65997483719912
C         7.68313873585980   14.91338378845706   11.28592651845281
H         8.22908540997530   15.84164478605540   11.36690871329458
C        13.41704591211780   15.60196123692495   13.00554474012698
H        14.03149797758334   16.38795600433725   12.60436117644758
C        12.61344983639348   15.67262731559413    9.72578962947263
C        13.75643613310839   19.79859519698742   12.76528936300594
H        14.70801996140678   19.96789043630922   13.24668530308136
C        12.50115109236270   13.53146778718891   13.31673328686536
H        12.28918277871671   12.48190055754101   13.21075630081329
C         8.10566395170014   13.83435763684673   12.05470705686128
C        10.51323990103384   19.42972130344774   16.79891439040303
H        10.52756603147957   20.47200264600588   17.07976350756401
C        10.48499370311441   16.76112551374935   16.07297767534869
H        10.47506451765818   15.72436906842282   15.77703617030600
C        13.09342100276591   14.76027787879876    8.79524154531538
H        12.55523142975493   13.84365649796300    8.60072528011201
C         9.32547934826935   14.07924352038536    8.90905612143103
H         8.92279309646257   15.03732042648807    8.61990600455332
C        10.42536979497415   17.11369540975096   17.40934559772110
H        10.37057130313871   16.34685503545883   18.16805848552103
C        13.39463620220166   20.54962281065593   11.65813314429153
H        14.06430041272810   21.30171418124960   11.27031451418000
C        10.44280647159925   18.44917770911297   17.77526033342049
H        10.40303422680346   18.72604573317195   18.81755135553103
C        10.83088119747614   12.74897583071600   10.22059622194354
H        11.62439333757284   12.69590321022489   10.95146576003698
C         8.92734879764615   17.96522504695004   12.88087766571041
H         8.89817639267847   19.01421411042744   13.17858205445572
H         8.16826608481510   17.41686777241989   13.43203415301768
H         8.73688114828994   17.88007750833309   11.81510479291693
C        12.89790120398803   18.83502629119278   13.26036599611547
H        13.17921114698093   18.27141731766062   14.13660467914069
C         9.68301612998967   11.44339893022918   16.23927979003845
H         9.59381810198379   11.42895519125548   17.31517502779136
C        12.16282078708977   20.33971084037794   11.06215369993217
H        11.86784352773259   20.93324941042259   10.20922280461065
C         9.92715618133516   11.48725082997590   13.48012721881365
H        10.03255894788917   11.51534706272807   12.40468537937168
C        10.29577366340835   17.29364134439237    8.89466324449293
H        10.97039867137717   18.15133365354857    8.90993003907104
H         9.29342209506889   17.62605045741177    8.62157340893052
H        10.65809661612770   16.57699952251973    8.15744199210478
C        13.31852179705325   16.84800907282082    9.96474691228117
H        12.93610200644111   17.54995247225732   10.69165855381618
C        10.10879749222087   10.30380141451716   14.17185590619069
H        10.35188187779097    9.39872738843394   13.63535471341422
C        10.56650429484889   19.07877618343632   15.46250395366546
H        10.62942310311490   19.85129537547835   14.70839255538402
C        13.21895571907631   14.33241103734471   12.41338247629803
H        13.63286837098262   14.01309588116506   11.47224552292776
C         9.98246300084218   10.27900936945507   15.55215907838366
H        10.12287252348447    9.35459736973907   16.09058666951274
C        14.48824950747423   17.11327434429169    9.27874382786486
H        15.02733467337028   18.02926891389433    9.46871318838319
C        14.96664105789119   16.19966027167000    8.35222373653199
H        15.88188622939326   16.40098363736164    7.81726686754138
C        14.26870181378409   15.02790907036217    8.11254368660618
H        14.63860855100079   14.31661622898543    7.38962993291349
C        10.31843005059021   11.59830440937288    9.65164920224049
H        10.71151477673516   10.63234270322324    9.93412175962590
C         5.93112596841137   13.58401514787876   10.34182693911414
H         5.08548922518221   13.48282007756247    9.67911786941750
C         6.59683298660121   14.79547044194405   10.44053768086945
H         6.26808896363837   15.64317207399072    9.85749411258221
C         7.42293623800707   12.62876545727845   11.96838025550974
H         7.71148050062965   11.78311150695260   12.57386078444246
C         7.29598675063323   14.91269486620944   14.70674469692222
H         6.57348226939357   15.22538940948654   13.95034956410368
H         7.14584434618769   15.49272814544447   15.61712566907433
H         7.14776088900359   13.85262276044264   14.91780181913599
C         9.29893423468237   11.68543129830179    8.71674596081841
H         8.89168861989733   10.78838265591860    8.27666810229813
C         6.34840278227294   12.50581997406054   11.10254023900532
H         5.82727052574400   11.56291234785891   11.03421613381758
C         8.80645940546314   12.92523607024070    8.34788669033871
H         8.01314146485866   12.99605181078604    7.61931773073755

