121
CSD_code = HARKIU | q = 0 | S = 0 | Stoichiometry = C32H76CrN2O8Si2 | MND = 4
Cr       -0.28370939302664    7.53252243168617    7.52264941346814
Si       -0.95413143550042    5.16440336136444    5.27625778764911
O        -0.90944860156753    3.63571065037073    5.85891702449910
O        -0.23419113416961    6.25216973765215    6.17083416909303
O        -0.42741640507380    5.07198259466920    3.72257736238578
O        -2.55582117053349    5.56894806218738    5.34202854506611
N        -2.35859366037522    7.07319486789914    7.86639967318622
C        -1.73069684037281    5.01301673913397    9.03782024974553
C        -3.06049332997847    8.92993426936752    6.44762828653046
C        -3.31967334497921    8.16190316360966    7.73258207145658
C        -2.69666684136797    6.18384968098879    8.97349401641763
C        -0.19196140858157    1.66064362505340    6.93777134727007
C        -4.83907155280044    5.87628901037932    4.77956491578609
C         0.03529248792098    1.94607146563956    4.44626348816998
C        -0.53917432137881    7.43018767070884    3.17096422686389
C        -0.11863797298485    5.64908456352904    1.44719702441094
C        -3.45338660772338    4.18459487875659    3.55785488557334
C        -4.05600215174462    3.79809265524152    5.95663936948800
C         1.48055273690350    3.27768722744753    6.00303588283654
C         1.62443593351879    6.16732436482073    3.18310901383851
C         0.10169047736736    2.65094142702947    5.80447075901055
C         0.12139293470802    6.07881667489689    2.89908367348714
C        -3.70126465779921    4.85564194458297    4.90742477774735
H        -2.42620193897034    6.51429914159914    7.00811719485266
H        -3.72791822957273    5.80767175479535    8.86415846915019
H        -2.64675529644726    6.75519496673879    9.90494305837529
H        -3.21036396145773    8.82988393108229    8.59327627620799
H        -4.35204413544273    7.77240882235172    7.73210788440496
H        -3.79184591214187    9.72416154774506    6.31857625276107
H        -2.06023197210021    9.35607706592589    6.49380804658368
H        -3.10950718175879    8.25445900369397    5.59784531599751
H        -2.00680440872883    4.33687843715666    9.84384268666286
H        -1.73305347951260    4.46975861048569    8.09689104719959
H        -0.72642561618599    5.39255011570591    9.21251911614725
H         1.75890547950056    6.34829023393862    4.24644157998812
H         2.11055170723417    5.22937997419037    2.92337047431819
H         2.08024277444833    6.97215505645604    2.61216362420845
H         1.47677565549549    3.87340779149054    6.91084793245592
H         2.24444288973114    2.50743156282522    6.07382856280291
H         1.70147414754994    3.93069618361118    5.16503988034859
H        -3.19333694573587    3.15723863220533    6.10878860953836
H        -4.30405396972387    4.27443454481492    6.90194315225194
H        -4.90265266041734    3.20147894249798    5.62700453304086
H        -3.16387291199038    4.93103491815343    2.82331402222927
H        -2.64299130026112    3.46966147876768    3.65269956055493
H        -4.35142412411518    3.67538544999857    3.21613559589066
H        -1.18521831141742    5.59299323591587    1.24633948884571
H         0.33479455547878    6.36170063596861    0.76334424717988
H         0.31357391262664    4.66655945918479    1.27503693094901
H        -0.38068492739957    7.69821542105853    4.21286594747769
H        -0.12361098128227    8.19745003872397    2.52288402861649
H        -1.60919567295603    7.35443372582680    2.99729446008283
H        -0.92011952751904    1.43843134147358    4.33504276144792
H         0.12532729602901    2.69192028579494    3.66186801857307
H         0.83689109560227    1.21793658574192    4.35314943965141
H        -4.57935053700519    6.63479616073887    4.04510627169567
H        -5.75330098432904    5.37990275788535    4.46461705344033
H        -5.01508010968326    6.36577523248364    5.73375329965578
H        -0.12851262448148    2.16850566283685    7.89661287149810
H        -1.19533668756681    1.25703598190115    6.82694467862122
H         0.52221644557975    0.84187195445363    6.91808091584830
O        -0.33323296168842    8.81291572155018    8.87442393153112
N         1.79116114975119    7.99184048410076    7.17888410484286
Si        0.38671017109279    9.90063266142004    9.76905295433754
C         2.75221519148751    6.90311211337758    7.31269826392232
C         2.12924193357955    8.88117928766132    6.07178617680662
H         1.85877876327285    8.55073367595432    8.03716700724453
O         0.34204064269199   11.42934776549605    9.18645361882705
O        -0.14001425420058    9.99297684225955   11.32273254577717
O         1.98839430402651    9.49606876770532    9.70326382284128
C         2.49300739663944    6.13506691017156    8.59763918775210
H         2.64290450804968    6.23514484895006    6.45199324147821
H         3.78459288045716    7.29258534005996    7.31319236869901
C         1.16327470815730   10.05201424621224    6.00747090682640
H         3.16049930930155    9.25734502870853    6.18111232932978
H         2.07931451217888    8.30983079375546    5.14034043854468
C        -0.66911284902195   12.41410228460030    9.24087853512906
C        -0.68885861699987    8.98613181211767   12.14618637904686
C         3.13384472669943   10.20934510912480   10.13789735061835
H         3.22436415755326    5.34084553749162    8.72670499940135
H         1.49275209766837    5.70891250390843    8.55143253371044
H         2.54199348996837    6.81053585999599    9.44742871832338
H         1.43935760776896   10.72814393195316    5.20143254371099
H         1.16565773095732   10.59527949747296    6.94839603824216
H         0.15900001565759    9.67247143379669    5.83280977373999
C        -0.37539230683439   13.40446228622264    8.10765070761146
C        -0.60282360976009   13.11891239721181   10.59912171874760
C        -2.04795226224574   11.78734770181999    9.04218520956739
C        -0.02834518587963    7.63474951140846   11.87423412126223
C        -0.44880019552400    9.41579439640943   13.59809030488184
C        -2.19190653471581    8.89770176814487   11.86216078775321
C         4.27163425125402    9.18867549241233   10.26573138092195
C         2.88596409656166   10.88035357534368   11.48748610166636
C         3.48860412889299   11.26692315288607    9.08871844707111
H        -0.43876736007212   12.89665056125102    7.14877797164744
H         0.62797069981774   13.80807441256142    8.21857214449353
H        -1.08958021482171   14.22322560045989    8.12733519030866
H         0.35256310981225   13.62658176246698   10.71042398745928
H        -0.69288231559769   12.37302808222458   11.38348032314084
H        -1.40445411106586   13.84701524767533   10.69221414507452
H        -2.04409715838231   11.19166102747913    8.13435141394567
H        -2.81184878947422   12.55759472306879    8.97136492831045
H        -2.26892646049728   11.13430223829030    9.88013890480443
H        -0.18684777814318    7.36679177949071   10.83231574393372
H        -0.44393538458614    6.86746399551764   12.52226905507663
H         1.04167989465107    7.71045234834521   12.04790363290991
H         0.61778344629708    9.47183700017728   13.79894471182076
H        -0.90225440301188    8.70316703137653   14.28191673435220
H        -0.88097351219888   10.39832841689361   13.77029721816542
H        -2.32638249953959    8.71679173882669   10.79881926545720
H        -2.67798242362524    9.83565504752509   12.12194205246820
H        -2.64774984641179    8.09286398685562   12.43306683296637
H         4.01189686028891    8.43014831408964   11.00016387281103
H         5.18587227556508    9.68503388162868   10.58069802399878
H         4.44763628640877    8.69921750012578    9.31152724469161
H         2.59642978386389   10.13389554464601   12.22200071845054
H         2.07558214475385   11.59530442711150   11.39265574123905
H         3.78400662245620   11.38953682930550   11.82923054183052
H         2.62595157196910   11.90779871839202    8.93658740206903
H         3.73665049404837   10.79060877349756    8.14339928582655
H         4.33526477917096   11.86351055774189    9.41837510901618

