32
CSD_code = HARKOC | q = 0 | S = 0 | Stoichiometry = C14H13AuClN3 | MND = 2
Au        2.72156175208240    0.64623402073812    4.68569320082310
Cl        2.81329710974013   -1.25839179000683    3.50274929307261
C         2.68753450657449    2.31044945598261    5.79555345284487
C         2.64567205375631    0.74573538638730    8.79212590933674
N         2.57982195904925    1.20622628564324   10.03358616635716
C         4.50261424692841   -0.65210298211859    9.31688077340706
H         5.25081596200039   -1.37792187345138    9.03487275589889
C         3.44862230428896    0.75408368713207   10.92080687712931
H         3.34633013230320    1.15938788366887   11.91880379254735
C         4.43040613103584   -0.17605407169015   10.61708067102953
H         5.11639964620020   -0.51824975609647   11.37576457784149
C         3.59456597202874   -0.18299778158329    8.38181087911254
H         3.61255043858599   -0.52870802971398    7.35875007255849
C         1.64482036549739    1.32026609731803    7.81611859595438
H         1.32118673004186    0.55310068065950    7.10854867161450
H         0.78669333416546    1.70895781637666    8.36995779373400
N         2.24011363632943    2.39663607397911    7.06304199026445
C         2.47111395322079    3.65622743706400    7.56844390123539
N         3.19030905391455    3.51638354443346    5.46807364053148
C         3.07668741571877    4.38441668809017    6.53154190579446
C         3.43710278750100    5.71325764814306    6.70042744920076
H         3.89959036719624    6.27814002322461    5.90680075916294
C         2.58835694315507    5.55083612760112    8.96653488060979
H         2.41523960716070    6.03545271914646    9.91490310856742
C         2.22293085169354    4.22829234706954    8.80726755384379
H         1.78561212572463    3.65615380891768    9.60902584881221
C         3.17925595019206    6.27969597626146    7.93370123552329
H         3.44549355224715    7.31120569435572    8.10583868099544
C         3.76162874131425    3.86614222666297    4.19899335079834
H         4.80072466445820    4.17576591549134    4.32525170617665
H         3.20008416442309    4.68473540631845    3.74491534103628
H         3.72236354147654    2.99504333405967    3.54643516419641

