58
CSD_code = HARPIZ | q = 1 | S = 0 | Stoichiometry = C22H32OP2Re(1+) | MND = 5
Re        0.31453638035502    3.51894615293730   14.16314859197736
P        -0.32269172954175    0.99702774191028   18.18703112300623
P        -3.76613078702690    1.53163138954305   12.62175853820382
O         0.55997933695616    5.17944926664463   14.17515071392218
C         2.24933433655585    2.63183530571289   14.57126900859191
C         0.74309760072178    2.87795873132662   12.13694766959323
C        -0.11567062285502    2.66574027648194   16.00071623945435
C        -0.22311594567257    1.40349883775902   16.45820144472361
C        -1.58541608888015    2.89753280088769   13.61973124933885
C        -2.15216745660196    1.70634072650652   13.34874939813820
C        -1.68489477221986   -0.16798956436088   18.50560253362207
C        -0.63154378474537    2.46621572900547   19.20254012510736
C         1.22492818429704    0.26304495549228   18.76981608454065
C         1.28664503513420   -0.92469184427024   19.48874509974542
C         2.51734565698303   -1.40630251109651   19.90093411528294
C         3.67735512799699   -0.71215586659470   19.59741377132918
C         3.61567002976050    0.46945879805393   18.87372222766849
C         2.39214940266671    0.95670113073440   18.45682477583317
C        -4.84177449951182    0.47150392810020   13.64113297379151
C        -4.60409662737657    3.13031633395310   12.45947978479395
C        -3.64507541200683    0.81687303758461   10.96438936185404
C        -2.65222411691029    1.33359575213718   10.13484841012360
C        -2.51389548922984    0.85477796958743    8.84614501937494
C        -3.36127673852446   -0.14153641123469    8.38523272947251
C        -4.34445370212259   -0.65991732936475    9.21272277739116
C        -4.49182962803509   -0.18497824100150   10.50443743139244
H         2.60594465782030    2.85033516254399   15.57935984184663
H         2.21736833578182    1.54070823003471   14.45835990112452
H         2.99623748254687    3.01546880342908   13.87732520311468
H         0.04247734463075    3.30159234222196   11.41473819398102
H         1.74105211413276    3.19745435008379   11.83932946099834
H         0.70059897983346    1.78525808144681   12.04461400332420
H        -0.19391799632245    3.43922187047287   16.77257395263441
H        -0.14501396103964    0.53322149145929   15.81421961052929
H        -2.23269234071262    3.76270305036384   13.44024795589029
H        -1.62783032059853    0.76287918150248   13.46453079946312
H        -2.61300834020143    0.29019301090860   18.16509840034607
H        -1.51488403587971   -1.08886637162258   17.94890877942456
H        -1.76034653920973   -0.38832856503165   19.56913608014473
H         0.21723813322550    3.14530619440614   19.13014464648257
H        -0.75392996305820    2.15896002531651   20.24084822413846
H        -1.53375380360045    2.96922443560177   18.85591019476594
H         0.38756829207139   -1.47229555396177   19.72855044310933
H         2.56961876710238   -2.32745166971414   20.46074499264153
H         4.63246868987232   -1.09462191748014   19.92213201896196
H         4.51998164752385    1.00655603437149   18.63316877342794
H         2.32870947681317    1.86902824881199   17.87865772176331
H        -5.84604688532119    0.42710030686701   13.22340103187073
H        -4.88755401927797    0.89608664892493   14.64357403204856
H        -4.41984440028269   -0.53143835490463   13.69485531955251
H        -4.70041210425801    3.59830088108514   13.43864985768298
H        -4.02642020958365    3.77635171907407   11.79902220214539
H        -5.59180263468873    2.96948605323456   12.02806908558036
H        -1.99056320920723    2.10109764927497   10.51355604879278
H        -1.74590484528407    1.25502628332055    8.20261600065258
H        -3.25299173783848   -0.51709099619212    7.37965321216092
H        -5.00013024213755   -1.43738439152146    8.85178507970151
H        -5.26020002305331   -0.59435933068607   11.14302773342182

