42
CSD_code = HARSEA | q = 0 | S = 0 | Stoichiometry = C16H14ClN7O3Ru | MND = 6
Ru        4.15000548529098    4.52383767748421    3.64248613512018
Cl        3.28654924213151    4.85044221652106    1.56894192250333
O         0.21605945649808    4.28841915994759    4.69032769558516
O         5.91296387777477    8.12912111684315    2.92049481507959
O         5.39177236952656    3.80754634705717    6.09011041365788
N         3.18853610114241    2.64470554606575    3.51430320860064
N         1.21019978038582    1.70225917695526    3.60244538702871
N         2.38413545768339    5.02925195551738    4.34674985806869
N         4.50439634041060    6.45828435529272    3.68968619188304
N         7.45310148255015    5.89913164949392    1.69047244879449
N         6.01350242631779    4.54666770500036    2.64329523276522
N         4.85402187951994    4.15707245909434    5.11821981422099
C         3.30750526351142    1.37843056446062    3.05336839530863
H         4.24710917407756    0.98289144920127    2.72200001004672
C         2.08007722425486    0.78002313989305    3.10654077087558
H         1.76733091117774   -0.20669664139805    2.83335176167782
C         1.90619649788653    2.82824494863846    3.83972788627951
C         1.38417364950780    4.14079307432937    4.34701936357526
C         2.30128152665882    6.39689752301823    4.60166876291982
C         1.18860811530628    7.02963408655665    5.14638575020961
H         0.32289221207626    6.44123667945861    5.40315439526030
C         1.20256604729086    8.39933940183629    5.34346630435307
H         0.33555501027292    8.88148083342634    5.76931241841450
C         2.31383569579478    9.14958902265244    4.99581076848517
H         2.31511111754455   10.21819430974186    5.14940679409656
C         3.42934103442645    8.54200410252310    4.44660667514237
H         4.29302421222247    9.12101749906587    4.16305909238447
C         3.44050235661396    7.16536881125549    4.24691305760180
C         5.56773068790904    6.95960175239765    3.05153450013579
C         6.35938728973396    5.82497594347623    2.46954182535816
C         7.80605663477302    4.62713672818825    1.35800920185978
H         8.65144344912033    4.41622536571313    0.73598885183539
C         6.90135033605550    3.79408211723396    1.95388945686314
H         6.83876810035990    2.72419240694666    1.93087300074057
C        -0.19800185100666    1.49686172337102    3.81038144865559
H        -0.62335579121195    2.41387099089230    4.21734311321821
H        -0.35505387682388    0.67510530540430    4.51016184673768
H        -0.68267919839680    1.25625376862963    2.86335963816833
C         8.13256398448226    7.09362782174969    1.26624341508988
H         7.59864374176881    7.95466426363600    1.66786572118229
H         8.14918662060430    7.14489137971872    0.17693052357282
H         9.15790592477804    7.09102226271053    1.63875212664321

