40
CSD_code = HARTUP | q = 0 | S = 0 | Stoichiometry = C15H12BMnN8O3 | MND = 6
Mn        5.62001595829928    2.52639565712421    2.16335921168761
C         5.41438959492677    1.69144640749184    0.60189522119232
C         6.41365816723674    1.07854652301194    2.83378270612135
C         4.03622897299050    1.90571476854375    2.69642271553576
O         5.26629233026682    1.11367440538970   -0.37965518742205
O         6.88923965363684    0.11739737901509    3.24592421556843
O         3.02821121376002    1.46066243074612    3.02053804126335
N         5.88815609964415    3.60650598082385    3.88125450255550
N         6.29929618774654    4.87998965545146    3.85911743469673
C         5.65016604583567    3.28676433643588    5.14795774559285
C         5.90646843538796    4.38271276099752    5.96873802585278
C         6.31285403926373    5.37697847696753    5.10535341996687
N         4.80234553184909    4.27931955205414    1.44628360857972
N         5.34057124970410    5.48826999067021    1.67714201134241
C         3.71270169741954    4.46806969171754    0.71102382572371
C         3.53971846243111    5.82675639529505    0.45933330483772
C         4.59890054885647    6.44041159527078    1.09312379709052
N         7.39361285266019    3.37188213260440    1.59140756222039
N         7.65662967897758    4.66828453723974    1.79486746007980
C         8.42259337485292    2.85590480735526    0.92930579662080
C         9.37499510874406    3.84397993187689    0.69050718885622
C         8.84366068651506    4.98349693129424    1.25470111107678
N         7.17453050197772    6.94624337453356    2.73262634122750
N         6.64035643210668    8.07881446937117    2.25693149891602
C         7.41140583339857    9.06617212258645    2.65909200138595
C         8.48551367350065    8.58443450978221    3.42105982999532
C         8.29665994695150    7.22586589043065    3.44353972690999
B         6.62161178557448    5.56725006893543    2.51146434539316
H         5.31163036244121    2.30424802408919    5.42148612993770
H         5.80724238789706    4.44096249680781    7.03249922315353
H         6.59926177564585    6.39005706972723    5.30225374081111
H         3.10417422010851    3.64036805832226    0.39505627045790
H         2.75654401292125    6.29110075982420   -0.10265538595978
H         4.88634945113068    7.46896792767127    1.17705751401597
H         8.44484996114961    1.81748902213760    0.65375899280874
H        10.30971968187241    3.74211142305743    0.17991719169576
H         9.23233101260396    5.98056837647819    1.29683009573445
H         7.17747927069616   10.07758489922122    2.39374571682281
H         9.27206137179929    9.14753673393064    3.87937510807872
H         8.87087242721905    6.44776042571667    3.90667793957559

