38
CSD_code = HARVEB | q = 0 | S = 0 | Stoichiometry = C14H12BMoN7O3 | MND = 7
Mo       -0.17299668336562    5.88355916064397    6.84104752050722
C         1.25843580359341    6.25501944033329    5.57257747076583
O         2.20799881610228    6.42655666486379    4.91623339427500
C        -1.14927778352768    7.57362931404395    6.68358640638655
O        -1.73760416212169    8.53598758931312    6.49776231793589
C        -0.32295197981868    6.33147242045951    4.94648941611487
O        -0.56072369494579    6.66537072023976    3.85185674123530
C         1.40541792973326    7.00830474481697    8.03336400787022
C         0.92810898256390    8.28650240828085    8.41324535589092
N         0.53592210510346    9.31783893741807    8.73788161536758
N         0.84721882162026    4.04316623822354    7.28229273069621
N         0.26810261947064    3.00421267808421    7.89259746879485
C         2.10573027717129    3.69707254923797    7.02692436879933
C         2.34508570795154    2.40180530726614    7.47725097798756
C         1.14374260481370    1.99955298245767    8.02350663056180
N        -0.99007642803289    5.52565048993645    8.76684258810887
N        -1.32477099484981    4.31678898196740    9.23488926581005
C        -1.32198944539216    6.41677932624522    9.69878310484898
C        -1.87804855270249    5.76764760096484   10.79655433544510
C        -1.86275186032716    4.43020849842668   10.45395728602290
N        -1.85725185733999    4.50317817607900    6.42380483662369
N        -2.04326418245299    3.37186981601118    7.10599639855881
C        -2.76025981614841    4.53879961132859    5.45147463487325
C        -3.55480531716413    3.39577599552358    5.50490410733705
C        -3.06223507595080    2.68154739158748    6.57790074229716
B        -1.19099034567355    3.07517069379930    8.34456723527107
H        -1.53274229632560    2.08984056841946    8.89708324673519
H         2.38734795999927    7.14661787477854    7.57064248119094
H         1.56069747320319    6.41214905640562    8.94478359532875
H         2.78775182142316    4.37082366970099    6.54125503332578
H         0.86671866800176    1.07682706632261    8.49118145855385
H         3.25651881896410    1.84498436963085    7.41458769202402
H        -1.14712565999343    7.46900351530137    9.55896651640031
H        -2.23803851030911    6.20861400484184   11.70235919247672
H        -2.19585737796970    3.56920491582075   10.99731860181344
H        -2.81583238048513    5.36568499358108    4.76761031752323
H        -4.36647266113435    3.13278813414706    4.85943067989882
H        -3.37163134367963    1.74289409350134    6.99039022634256

