69
CSD_code = HARWOO | q = 0 | S = 0 | Stoichiometry = C33H32AuClN2 | MND = 2
Au        5.23430334032896    2.24929057226541    2.03344122896122
Cl        7.15018133944065    3.40571178183825    2.32010405072577
C         3.50753271623894    1.15087094495609    1.84650886643859
N         3.27180534266134    0.28244955726715    0.87079553173723
C         4.29527719325261    0.08381604110194   -0.15530833777909
H         5.09833878763290    0.78499785200512    0.09951236162346
C         4.87234725230577   -1.32918760017235   -0.08860052074419
H         5.20692987584675   -1.54485431083203    0.92384519977267
H         5.72723406509710   -1.39911049279654   -0.75502722390704
H         4.14721110867224   -2.08346496982351   -0.38572651831692
C         3.79349897115359    0.44072908845756   -1.55319857808356
H         3.05420119496107   -0.26536570238022   -1.92471112956154
H         4.63411334103766    0.43882376292601   -2.24122162003910
H         3.35896598071556    1.43744954171925   -1.54989742821201
C         2.06129823452563   -0.53749212749374    0.71766040746704
H         2.22078749693097   -1.10752805884557   -0.19938260959165
C         1.86789129488162   -1.56678993445182    1.84148507451932
H         2.82864403366413   -1.86979969713936    2.25007756530935
H         1.37710692323867   -2.45050559105132    1.43984044469879
H         1.24524294994725   -1.20448603266172    2.65776849863457
C         0.81396650427738    0.31945781053701    0.48397507930634
H         0.54434989850305    0.91852180230109    1.34911046511034
H        -0.02544784966128   -0.32972568145545    0.24571876766815
H         0.97696001867041    0.99299096333928   -0.35393667537899
N         2.60916224691624    1.25635179905753    2.82336529670412
H         1.87205103215206    0.56894969157863    2.92360624754750
C         2.63004220819396    1.58076679474563    5.20719636240392
C         2.74695210681953    2.11226384279513    3.93821489879203
C         2.92692406222984    3.49306433098192    3.74539317761044
H         2.96669412925123    3.87862187983360    2.73880147937919
C         3.00948800471698    4.32768560863202    4.82241784620267
H         3.13751208488476    5.38977498765626    4.67814425246647
C         2.92608034380453    3.82340827400641    6.13650656686577
C         3.01532050732524    4.66913845321704    7.26112376505750
H         3.15296349351492    5.72849571528844    7.09980039141716
C         2.93802234930739    4.16123121000899    8.52712454659306
H         3.00676112025876    4.81547221941102    9.38361145093571
C         2.78469742337556    2.78077420051666    8.72404927775747
H         2.74665442387981    2.38973991871852    9.73012655116710
C         2.69224879169705    1.93406400592850    7.65565605015989
H         2.59450478932590    0.87026288276063    7.81199713956624
C         2.73931778085598    2.43053483854497    6.33629129778228
C         2.36761117541473    0.13181642092095    5.36084800760033
C         1.15202606938000   -0.30591824715051    5.85377042737038
C         0.89510263188939   -1.68859865739711    5.95458717671340
H        -0.06300164073710   -2.00670610849404    6.33966546328224
C         1.81691115462337   -2.60701556180250    5.54437078926111
H         1.60160686475657   -3.66429250993346    5.60094301108679
C         3.06967432108169   -2.19494984301207    5.04398909135085
C         4.03836428623589   -3.12266770420758    4.60764570750481
H         3.80297745016494   -4.17634548287849    4.65797199211456
C         5.24829789826633   -2.69999922338913    4.13223940404264
H         5.98208631253881   -3.41625697394045    3.79270085766904
C         5.55291739230186   -1.33024006921580    4.10085663765757
H         6.52059690677594   -1.00499782334417    3.74941636159084
C         4.63702020919242   -0.40667311488559    4.52073382492767
H         4.89036006130662    0.64317417294860    4.51260363674428
C         3.36081754598344   -0.80690525182664    4.97276087843037
C         0.11671059971367    0.64710485523779    6.29698572594057
C        -0.33623114276918    1.67267889440838    5.47385319215684
H         0.04799766622289    1.76920812901490    4.46879820649503
C        -1.28667679432585    2.56817095502400    5.92736028851738
H        -1.62729753172896    3.36102123940911    5.27774553536847
C        -1.79873638397899    2.45195523883801    7.20803256417753
H        -2.53523532535285    3.15707819195663    7.56324384423164
C        -1.36555226234011    1.42530351742022    8.02964508044903
H        -1.76447949253893    1.32648801455563    9.02850599934268
C        -0.41919386937334    0.52629456375702    7.57588130620856
H        -0.07311101546195   -0.26682779530618    8.22338549107245

