59
CSD_code = HARWII | q = 0 | S = 0 | Stoichiometry = C27H28AuClN2 | MND = 2
Au        4.82172616753307    7.22752506228563    7.37122482343288
Cl        6.51955548209084    5.79220734403093    7.75740991680589
C         3.26209935964199    8.49510172139936    6.93603570388709
N         3.37943107882055    9.81024034800956    6.80192159698591
N         2.08077516035116    7.93774245334872    6.67961446630888
H         1.34417369928626    8.46376656335769    6.22602229230815
C         4.69502944537006   10.42079923281373    6.99348268908245
H         5.35750386041626    9.59457330022116    7.27620862953846
C         5.22133302149796   11.01304974260601    5.68724975556261
H         5.18879623292296   10.26197152298186    4.90092965205296
H         6.25350645095104   11.32247287879659    5.82409618756331
H         4.64629352307953   11.87929655884168    5.36792910948652
C         4.70386872197812   11.43496768643229    8.13572103935030
H         4.14552538041255   12.33750070908131    7.89737128544278
H         5.73049494403627   11.72163120928566    8.34528384802418
H         4.28544354495133   10.98810502249963    9.03433061055742
C         2.29940709391351   10.74329431448864    6.45048864751958
H         2.76926581298842   11.72846163111398    6.43950159523745
C         1.72812115714876   10.51883214196594    5.04237612247045
H         2.48815970044850   10.10429102611596    4.38481475155711
H         1.40553989865940   11.47166089739823    4.62865403073682
H         0.86278655719049    9.85861259533240    5.02693157098893
C         1.21131079001421   10.79318997548989    7.52668094620066
H         0.66430059336045    9.85909035748299    7.61785801524353
H         0.50233215500362   11.58043340307497    7.28088905299045
H         1.65458311602263   11.01912402577109    8.49348882973129
C         1.29834949832392    5.90645525932826    5.65257525195703
C         1.83240861507445    6.54919377487376    6.75104535900281
C         2.08479533904160    5.85219231773255    7.94605283064239
H         2.45701855012904    6.39714974127603    8.79911501542634
C         1.83123579872086    4.51305320795186    8.02276116492921
H         2.02468848205170    3.97444053195701    8.93798140074600
C         1.31328011552014    3.81071024982853    6.91516158058596
C         1.05824952763236    2.42494103668063    6.97036410388048
H         1.27180598224488    1.89798484576510    7.88893361662708
C         0.56068850277959    1.76043654997036    5.88495229955341
H         0.37059918818735    0.69851421179473    5.93413644333522
C         0.30169580187460    2.45299896091040    4.69255554756210
H        -0.07906915061091    1.91339412240781    3.83787006958676
C         0.53352463834117    3.79730479991634    4.60667188533793
H         0.34409274035659    4.32537744128892    3.68367047807671
C         1.03387771435701    4.51490424587223    5.71383317284494
C         1.00511266647280    6.68873996487747    4.43080575550057
C        -0.29822224068611    6.92624157259916    4.06506200593457
H        -1.10048206551823    6.49963991263412    4.65090741391901
C        -0.60190557206488    7.72344849622469    2.95266330741767
H        -1.63629654692281    7.88867166671514    2.68938938925367
C         0.40042174588547    8.29414487122327    2.21971115186039
H         0.17312144064923    8.92208850232608    1.37041271287037
C         1.75230197673659    8.07314476237213    2.55662779700613
C         2.80543090466589    8.66201901757497    1.82469863258013
H         2.55845987989766    9.29597523808266    0.98486118629956
C         4.10891620909704    8.43718049357139    2.16874862805756
H         4.90852990871355    8.89786254518310    1.60724934477779
C         4.41911250636457    7.59117816635831    3.24506357098728
H         5.45182425429670    7.40093652580264    3.49597635767829
C         3.42264731129816    7.00062238525768    3.97062868566376
H         3.67038571311797    6.33564597476234    4.78500761869871
C         2.06643761588541    7.24466688263969    3.66679105232744

