89
CSD_code = HARXAB | q = 0 | S = 0 | Stoichiometry = C45H34AuClF6N2 | MND = 2
Au        8.14249533304412   15.33046188539832   13.12203545954383
Cl        8.15539355413666   13.11884094414611   13.56417765005800
C         8.26488403266845   17.29556823887354   12.57506891700715
N         7.24148193052331   18.09378513207752   12.30725789309583
N         9.49213490631034   17.76093983006827   12.34343662559784
H         9.63913623839112   18.60436084925172   11.79438645397180
C         5.86936887173843   17.60496890647611   12.48375695824408
H         5.97431152839604   16.55742777650623   12.79330956635387
C         5.13418279524010   18.33923948603266   13.60268596630423
H         5.65748322177393   18.18334203981718   14.54352478641162
H         4.13410790421151   17.92412201663894   13.69535955154324
H         5.04801688613933   19.40772947535573   13.42448626010187
C         7.38581145689983   19.50465324325361   11.92584916049744
H         6.37318993151614   19.84982292172613   11.68726275181780
C         7.89160759866111   20.31866318407624   13.12338567117822
H         7.33509123532489   20.04006140767034   14.01433586710696
H         7.73799433378870   21.38028625342292   12.94875967378180
H         8.94638174467575   20.14269620935915   13.31990026853383
C        11.70190405730608   16.86982211652763   11.93480807921369
C        10.66039658816812   17.11425422244447   12.79906715930296
C        10.76010253723869   16.77339453785836   14.16312697283442
H         9.93127941876440   17.00183115491339   14.81505746715748
C        11.88875605604982   16.17855872636879   14.64393917183202
H        11.95771228833969   15.89784637741620   15.68356117258234
C        12.98845173135407   15.92983264275840   13.79685471243201
C        14.16812635124105   15.32150269132821   14.27142444591136
H        14.21675641279167   15.03443728516690   15.31116867597790
C        15.22282380764418   15.09104219916335   13.43351306179072
H        16.12061810173558   14.61837999170567   13.80217506523560
C        15.14566479433995   15.46529355828578   12.08364495908527
H        15.98623228048627   15.27896298254569   11.43191246189764
C        14.01499070008213   16.05463444928515   11.59064385992985
H        13.95574915530673   16.33535725471025   10.54876930571527
C        12.90593035660570   16.30049765433819   12.42975101260743
C        11.56022238586146   17.14733570440736   10.48486221153154
C        10.91316473916501   16.24697487205701    9.66081351801978
C        10.82947511508718   16.50825386030682    8.27600382040250
H        10.33364991334043   15.78472213398043    7.64602931516395
C        11.40606068911065   17.61673946027680    7.73098682665732
H        11.36890376220338   17.78582645930029    6.66475679085446
C        12.05763176016423   18.56374774433663    8.54745208408118
C        12.65423118392978   19.72538540516048    8.01668206964056
H        12.62615362828915   19.87855161913448    6.94733165170622
C        13.25332424325019   20.64079475262218    8.83519859247167
H        13.70640290047964   21.52983839742046    8.42198312839811
C        13.28365324966912   20.43256038567978   10.22257316126520
H        13.75499957789670   21.16708008994032   10.85877346744449
C        12.73108644671693   19.30717943679455   10.76607733279931
H        12.76842723722596   19.13992717688554   11.83320514810486
C        12.11171683625522   18.33883076129569    9.94651979971236
C        10.34263417824003   14.97971907350072   10.15597841911817
C         9.05543386087171   14.59795434107464    9.78496157205728
H         8.45243868696225   15.26244354405849    9.18237432549322
C         8.54855617040606   13.36608324835348   10.17250973931490
C         9.28652962662551   12.49912789428661   10.96900457680139
H         8.88279098770195   11.54912878022140   11.27927765320511
C        10.56575508123589   12.88801528925858   11.33560450016510
C        11.09566694811001   14.10199877490687   10.92938541203718
H        12.11152552406951   14.34408759754685   11.19760017587792
C         7.16339804390456   12.96794171973044    9.74475284661795
F         6.21452364324686   13.33174505450309   10.62058070854182
F         7.03391784039020   11.65076156485183    9.55768836768401
F         6.81034075473498   13.54810052738083    8.57574757798475
C        11.43953994440505   12.00940807513856   12.18666405076554
F        10.89692274258559   10.83579908603359   12.50012306985591
F        11.80075191005056   12.60749745905352   13.33255692409417
F        12.60391779593034   11.72610864473855   11.55214699362620
C         5.15534419553578   17.61050418927253   11.14928940993653
C         4.26919390096287   18.60283988901992   10.75374135681330
H         4.00799517260409   19.40900798935620   11.42288494777260
C         3.68765488926012   18.56127143317497    9.49658270389136
H         2.99739074316209   19.33853848903728    9.20344017996730
C         3.98292397363694   17.53140840681610    8.62193748760878
H         3.52602167021816   17.50310744921472    7.64422507364948
C         4.85901729684954   16.53074663146516    9.01011987644020
H         5.08830228458276   15.71550828881124    8.34072469856794
C         5.43953212831042   16.57450714856101   10.26372757689414
H         6.11592863565771   15.79354953987490   10.57926778451139
C         8.18625015078378   19.70371711997375   10.64953529727263
C         9.05589001523063   20.77683536351024   10.48112731145510
H         9.26017892436153   21.45336748861220   11.29588970317280
C         9.66043433104233   21.00764051323139    9.25758072175218
H        10.32536230694977   21.85051093178881    9.14438222433205
C         9.40559221744549   20.17509686641751    8.18374636666105
H         9.85488405439521   20.37593572832468    7.22396151942152
C         8.56618576408768   19.08689733315036    8.34888325754524
H         8.36381297173262   18.42537166850828    7.52050451344148
C         7.96526366194258   18.85176758461564    9.57023002442138
H         7.29952516225434   18.00998336803486    9.68361506833391

