37
CSD_code = HASCOV | q = 0 | S = 0 | Stoichiometry = C17H14CrO5 | MND = 9
Cr        7.44286345859267    2.37501213359915    3.54836242225749
O         8.53044333265305    4.09951481595755    1.38446282156049
O         9.99228568241667    0.93151371585154    3.01862626261896
O         9.37297073519868    4.10642484967512    5.00737803053212
O         5.94767338042419    8.09890499631338   -1.35316639515831
O         3.70838023909201    7.95142180423377   -1.19186809730163
C         8.07846303354755    3.41250023757362    2.20051614878743
C         8.98117039450409    1.44606602884925    3.23042865935160
C         8.59630199403828    3.42943040871766    4.48498971484467
C         5.47432952619469    1.87891758003751    2.54564048030960
C         5.96464847772927    0.70104859706754    3.09904184649356
C         6.28590481450811    0.63906418683839    4.47175660347430
C         6.08026621342190    1.75659654594777    5.27792691637021
C         5.58891740287351    2.94865601300183    4.71648721772776
C         5.27357673920303    3.03520081293448    3.34840621717598
C         4.71633497524621    4.27268289274104    2.81971629913345
C         4.63885779283448    4.60090238430477    1.53074787087958
C         4.09520377078673    5.88091942585191    0.97516800192793
C         3.51789223842461    6.84584765178465    2.01407525462744
C         5.15704175985915    6.59030527182844    0.19082747659726
C         6.48698985550319    6.52260013684719    0.24636006886953
C         7.06323322999971    7.48299843838602   -0.73952548775940
C         4.80066400980929    7.60293647572280   -0.83820939179586
H         5.14982467251696    1.88670435323090    1.51266228970875
H         6.03608847632412   -0.19375479679045    2.49198494853654
H         6.60292123326141   -0.30020639993230    4.90838268570284
H         6.24435760679629    1.69583036457420    6.34724450194454
H         5.37330859807926    3.79078023403171    5.36496980498956
H         4.37213914993499    4.97059003735737    3.57123630323475
H         5.02174839089248    3.93033082748828    0.77230676444788
H         3.29199415094233    5.63636315793213    0.26569598067412
H         4.28983419769121    7.17121085517627    2.70789799316846
H         2.71193831277491    6.37025187751433    2.56735749497330
H         3.11754328588214    7.71874696336381    1.50502341468968
H         7.10909947393135    5.90235418804624    0.86321146690245
H         7.68095380630670    8.25209922147304   -0.26260140266580
H         7.66663558780264    6.98533371246733   -1.50662118783080

