60
CSD_code = HASFOW | q = 0 | S = 0 | Stoichiometry = C30H25O3PRu | MND = 7
Ru        1.55110855558269    1.52632905891373    4.32667281335658
P         3.04735596409640    0.97061133264090    2.58848352462629
O         0.76180754655497   -0.46810011352820    4.45758517451193
O        -0.93194946837405    2.31923248465841    2.81734832861385
O         2.24064698686769    4.39500501244103    4.86289066172737
C        -0.90347950404526    0.07860808580391    6.13460231729677
C         0.50118512616129    0.10352802908255    5.57140019345606
C         1.59792818744681    0.64077602670850    6.31691042294172
C         2.88422004120350    0.43458973302111    5.71863505710949
C         4.10486890021975    0.99054478087091    6.30685504181331
C         4.11023293866263    2.19167803831770    7.02187612638110
C         5.28697220694383    2.70855052656622    7.52670763343487
C         6.48683453285431    2.04424671001100    7.32943583144059
C         6.49803691947633    0.85160366044815    6.62542807403071
C         5.32218283520932    0.33056343445226    6.12379185468770
C         0.02342608788486    2.08975089472544    3.41025056670262
C         1.99973541945424    3.28537869814257    4.66327568205995
C         2.51208493918650    1.49261591131682    0.92250798979911
C         2.61574380586584    0.70344961368280   -0.21636527021443
C         2.21597002664807    1.20784465525154   -1.44215520538524
C         1.72534737913740    2.49862354594203   -1.54057379514477
C         1.63127957847592    3.29314629597907   -0.40818560097569
C         2.02043779760140    2.79152879901036    0.81869938204092
C         4.74569420522027    1.63517194074298    2.55371177888859
C         5.61757905480695    1.27799778350058    1.52788840651369
C         6.90256433335477    1.78482117840396    1.50795905918961
C         7.32507500511522    2.65196003528116    2.50465796285190
C         6.45550907055512    3.02196465485102    3.51585234605551
C         5.16628468172775    2.51897350950820    3.53801142374510
C         3.28731196564656   -0.82071021711060    2.41936422285498
C         2.17979436832962   -1.58150470890912    2.04756596094675
C         2.27193791526938   -2.95869802279031    1.99795701365704
C         3.46167095544556   -3.58728920952182    2.33336831508277
C         4.55794682038649   -2.83546467304129    2.72181476161094
C         4.47396686957829   -1.45474681197908    2.77163846416782
H         1.44533318490802    1.12913571612398    7.27440422970964
H         3.02871123528543   -0.57073830173905    5.30063112222091
H         3.18636759820040    2.73722668686424    7.16359152611013
H         5.26995023524811    3.64025973878859    8.07384707118849
H         7.40619723837277    2.45373665709770    7.72122506269496
H         7.42892060228174    0.32559650078542    6.46782408141420
H         5.33711012732071   -0.60283066350665    5.57734473691011
H        -1.63219935948195    0.07965499277738    5.32540141818709
H        -1.02993046625688   -0.84219915631917    6.70611679112141
H        -1.08252720123618    0.92648788057222    6.79222933624014
H         2.99270689840907   -0.30759973619377   -0.14635127018992
H         2.28786328860143    0.58812552957134   -2.32417598852540
H         1.41265339062828    2.88517659816815   -2.49915532113699
H         1.24847224528855    4.30002392170176   -0.48334055333024
H         1.94150786663248    3.39538546902783    1.71886586541965
H         5.28516717735494    0.60345366070840    0.75084804343509
H         7.57875245590667    1.50413476944363    0.71355058816241
H         8.33231351685414    3.04121943815261    2.48734015492031
H         6.77818785959600    3.70017981180175    4.29130547310062
H         4.48008581026652    2.80611799688502    4.32333753612797
H         1.24908824156155   -1.08114721449460    1.81233148450916
H         1.41332796978242   -3.54625373558317    1.70797183764319
H         3.53114223124010   -4.66473727027026    2.30093846993969
H         5.48149704363560   -3.32606150169467    2.99414722233537
H         5.32728876204893   -0.86812846144461    3.08360456235526

