42
CSD_code = HASJEQ | q = 0 | S = 0 | Stoichiometry = C17H18FeN2OS3 | MND = 6
Fe        0.99734267809352    1.17054257496122    5.85288745056323
C         0.96829875099707    2.10686694434843    7.32896637465251
O         0.86544993092843    2.71250655287962    8.29259982940544
S        -0.67995913861000   -0.01824492609759    6.78695876944598
S         2.74905760142202    2.16521070818590    4.92650552637885
S        -0.38018036950423    2.73912418221595    4.93289464919529
N         2.29669560700924   -0.25546011538862    6.66358942354785
N         0.74370693962105    0.06712687522806    4.10194224201985
C         1.69925884412837   -0.89540752553933    7.82726755801494
C         2.45508519415556   -1.58021602659727    8.76460059535749
C         1.84508423717731   -2.22217692532825    9.82880875326756
C         0.46278979418592   -2.20277704312300    9.94277527272769
C        -0.29930496285724   -1.53719814496869    9.00847470453598
C         0.30316474770603   -0.86283404858471    7.94349705559462
C        -0.37005349646676    0.55339116346180    3.30188224769851
C        -0.86137834495167   -0.21938185669202    2.26240152736028
C        -1.89413241699711    0.24584177977535    1.46971911166374
C        -2.43591013409968    1.49924307157382    1.72461155041252
C        -1.96807449287934    2.26331527595706    2.76945120379033
C        -0.93293155724696    1.79835069658430    3.58858551718394
C         3.57950473276986    0.41059594906193    6.91333785602549
C         4.08030689134269    1.10956921832469    5.65719813867148
C         1.98541146439166    0.02991014511539    3.31877698872301
C         2.59021968910500    1.42398883775846    3.25503655786567
H         2.45764624531720   -0.99818279197091    5.97730692982476
H         0.49566033698868   -0.88324658399221    4.38275126144702
H         3.53137788920936   -1.62159673184061    8.67806279138606
H         2.44800718103432   -2.73827821550272   10.55975372192541
H        -0.01754777353101   -2.70689887490012   10.76777748842055
H        -1.37525718604371   -1.50943861136982    9.08520141280210
H        -0.43919627294804   -1.19968794698580    2.07740135900937
H        -3.24032493789305    1.87121626668031    1.10748450268334
H        -2.27680470863364   -0.36428781274495    0.66614878972516
H        -2.39669141351437    3.22847201700884    2.98871659190466
H         4.35333005135515   -0.29329964976822    7.24722844072595
H         3.41357164587556    1.14559429543575    7.70358745061425
H         4.91466498853395    1.76610492541443    5.89800920554394
H         4.39860871819539    0.39613601630326    4.89848263448817
H         2.69038549422280   -0.66494381477218    3.78800603312918
H         1.80105927686760   -0.32194912782730    2.29483426764724
H         1.91452158184792    2.10403691403891    2.73612000771987
H         3.56313669369531    1.43116236368109    2.76605820690178

