77
CSD_code = HASKEU | q = 0 | S = 0 | Stoichiometry = C34H32N2O4S4Zn | MND = 4
Zn        4.62708599963882    0.55310140639025    6.49047753991008
S         3.07717105680747   -0.22435398774801    8.21446604210421
S         5.91962851299767   -0.97571552409673    7.89903101908416
N         4.33650316776062   -1.93890764201552    9.78073641291634
C         4.43389299194095   -1.13092833078358    8.73589665493436
C         5.43601908348814   -2.76618180948166   10.24660943914739
H         6.22988151710948   -2.74065186410554    9.49697672702006
H         5.06620607701816   -3.79178882525421   10.34120112619554
C         6.46012174464923   -0.98133172437345   11.67806213432010
H         6.48867127573311   -0.34956552505239   10.80274063534756
C         6.92519790419572   -0.51086481481657   12.89230213239510
H         7.31411113100997    0.49374266817371   12.96563280659051
C         6.89573236677216   -1.32738375238747   14.01101685495999
H         7.26070592101097   -0.96032149404378   14.95870268436806
C         5.92836743331660   -3.08511961457073   12.69663135141650
H         5.54083850150504   -4.09131308093904   12.62039953626622
C         3.11432716678784   -2.08758144996856   10.55485417719729
H         2.42884025478862   -1.28601901933206   10.27397072676740
H         3.37550680892124   -1.98406344859038   11.61205992606811
C         2.48108301637370   -3.43055774287351   10.30072278087315
C         1.95603994565351   -3.72667696991406    9.04703761441836
H         1.97668768850810   -2.97885731535600    8.27003909339584
C         1.41553938094262   -4.96994764197469    8.79245041587004
H         1.01497605960317   -5.21919182362831    7.82323802086564
C         1.37773150189728   -5.93934175877483    9.78798981264073
O         0.85566679744469   -7.16908441851521    9.48433378703128
C         1.15251291301977   -8.15753327315958   10.44504868682881
H         2.19825057536241   -8.47863882812922   10.34075322367208
H         0.48894616046843   -8.99881498456918   10.24033483886121
C         0.93502275617866   -7.60721947128480   11.85382279505749
H        -0.10504105661712   -7.26715648843527   11.95205463184435
H         1.14819414734820   -8.36142399942431   12.61247378345078
O         1.81629320136959   -6.53311611773485   12.09676143651028
C         1.87000488560642   -5.63533551838629   11.06058237835076
C         2.43279450689701   -4.38849730995610   11.29985845505950
H         2.81355941248479   -4.18492052384956   12.28885759944985
S         4.41066113602651    0.43581519408476    4.06025756233372
S         5.11218714960964    2.80890890662997    5.69141388936961
C         4.82361755113943    2.09178219480906    4.16703789365727
C         4.73493788288182    2.30964406086573    1.73390891139371
H         4.04307424325595    2.96676938137358    1.19893899676889
H         4.29091956958021    1.31482859455813    1.81674045528295
C         6.05512180675262    2.23146070091168    1.01000291853556
C         7.05358312221928    1.39400241233890    1.49328339487724
H         6.86125923200969    0.78917631049432    2.36691022655240
C         8.27984255065982    1.33084419065114    0.85819174520543
H         9.04944068579234    0.67700690671878    1.24027090964413
C         8.51970038964919    2.10227514876312   -0.26734287478927
H         9.47699730353304    2.05157631195463   -0.76429888612990
C         7.52915627723330    2.93651628245249   -0.75476203140840
H         7.71076721414682    3.53870974933494   -1.63269501585733
C         6.30269153745662    3.00445900871784   -0.11546946062314
H         5.53091182373575    3.65675817136008   -0.50045922369900
C         5.25271721246612    4.24293796961319    3.17256150983660
H         5.55798849708150    4.58103369002481    2.17815592660749
H         6.10423409311370    4.36568392061240    3.84984778623953
C         4.10018794909581    5.08170981895450    3.67631182341794
C         4.35719588506646    6.31156412995805    4.27108183832252
H         5.37596091232657    6.64755005591373    4.38610017310574
C         3.32070938135186    7.10749017568620    4.71302848459999
H         3.50614997580961    8.06735696705605    5.16733878609918
C         2.00396063326678    6.68343544378920    4.58673882925648
O         1.00261083739594    7.51454195349945    5.01877964811080
C        -0.27686191185731    7.13143801271324    4.56626884856410
H        -0.39544353685267    7.40169250455169    3.50754234853832
H        -0.99805620370619    7.68555373863092    5.16878882596419
C        -0.46338553402967    5.62287932295740    4.72182993629592
H        -0.32202345135943    5.34776011469975    5.77589267640362
H        -1.45348205983063    5.30809399769208    4.38927196281216
O         0.46795245611110    4.93491880830634    3.91674062238033
C         1.74100573144076    5.43141753194767    4.02508249384066
C         2.79011529437640    4.65020330602681    3.55907482101586
H         2.54206781272409    3.69171789479615    3.13086904856589
C         5.95772171467344   -2.27274868522771   11.57174281005376
C         6.39965065498702   -2.61555378875180   13.91084908285204
H         6.37609024947623   -3.25629550479948   14.77998102860957
N         4.92519312313333    2.83614711435039    3.07376399624665

