41
CSD_code = HASMEW | q = 1 | S = 0 | Stoichiometry = C21H13ClF2N3Pt(1+) | MND = 4
Pt        5.28376219842034    6.87430536525247    7.32616727156135
Cl        5.50025535749858    7.55159707763830    9.42862905396566
F         2.70604018316341    6.23620171104386    1.27105686724082
F         4.29610710910009    3.70991424808686   -2.32982632421593
N         5.10492157956716    6.29565493143885    5.52946646499167
N         5.84860938084831    4.97060450288926    7.58555358257049
N         4.65841129503201    8.60506546550596    6.53630242546841
C         5.40058499310363    5.01991515860560    5.23664066951793
C         5.27890583198527    4.57449068370047    3.92867257174042
H         5.48383247347963    3.54881383034609    3.67126786700304
C         4.85520991375107    5.46792713603280    2.93640268422756
C         4.56764282481219    6.79255871556862    3.28829045265883
H         4.25905446052904    7.49734201707088    2.53539346260436
C         4.69476200542644    7.18468107913075    4.61251163114128
C         5.82224262775772    4.26129795618951    6.42248540493232
C         6.17654653152489    2.91738828695219    6.40354642127112
H         6.15010785642131    2.36578080062645    5.47818030558777
C         6.56026991928385    2.29361516794129    7.58034796645512
H         6.83660013183917    1.25104320988108    7.57869161930100
C         6.58166245039260    3.03162751358864    8.75407747817664
H         6.87391625922586    2.58458294206477    9.68989561297345
C         6.21782837892982    4.36803416073218    8.71183184242707
H         6.21992097045635    4.98130704502129    9.60453291686732
C         4.43002716995988    8.50643109433131    5.19669922301341
C         3.96912353062970    9.59940790563026    4.47242365038547
H         3.78400700080247    9.50615356710972    3.41497976439836
C         3.74408678644897   10.80372846065533    5.12088979026171
H         3.38507991727325   11.65907789933635    4.57062578258804
C         3.98636245411467   10.88700516635220    6.48363898938839
H         3.82451192024287   11.80454882705700    7.02495540947695
C         4.44193263860725    9.76263726789378    7.15346755525377
H         4.64093866942988    9.78294325694853    8.21785956238408
C         4.71285126356922    5.01068019653919    1.55024826015836
C         3.64044953596677    5.41927476143668    0.75239306982605
C         3.47706921390310    4.98818390228588   -0.54818730365246
H         2.63163872259852    5.31018777527683   -1.13413411739602
C         4.42970703181473    4.13060617809893   -1.07295513063657
C         5.51486936621530    3.70176246772407   -0.32332744715506
H         6.24021775849594    3.03869696253358   -0.76584130488574
C         5.64200327935224    4.13762814629783    0.97952233729702
H         6.49572900802656    3.82439715918448    1.56002366082701

