96
CSD_code = HASPAS | q = 0 | S = 0 | Stoichiometry = C31H59Cl2P3Pt | MND = 5
Pt       -1.69132858724906   -4.59848942549135   13.84042876165990
Cl       -4.62098792251612   -6.49602299400597   11.44199324768409
Cl       -0.91843175855899   -2.37095452738735   14.25187634703625
P        -0.91998366021685   -4.16495096374184   11.71586919085457
C         0.76879020458894   -3.46379571468492   11.50078641392700
C         1.87498353186056   -4.43645628244307   11.88273637624467
C        -1.08643807162446   -5.44440029373603   10.39144281076217
C        -0.54116622031381   -5.08360284765880    9.01654578278986
C        -1.93978799720162   -2.77043252844702   11.08219479365425
C        -3.41197186049065   -2.99450972247754   11.40008281163160
P        -2.76001950455178   -4.38931883476837   15.87685271782859
C        -3.35368302920811   -5.90651309244137   16.74876490274537
C        -4.14018796266321   -5.68476755943359   18.03329959121007
C        -1.95923583629306   -3.39752712882732   17.20766196090319
C        -0.64417381224651   -3.98182260233116   17.70082501208389
C        -4.26906811268968   -3.35860367541351   15.63353431915452
C        -5.34232501339004   -4.03766278840117   14.79455848992718
P        -4.13214876738615   -6.97160390133414   13.35881407915015
C        -2.38376691543085   -6.48370226604751   13.56287215819460
C        -1.97257474294745   -7.73111583580943   13.93360142887752
C        -3.14207101267292   -8.62598232314349   13.58636703204834
C        -3.59637264296855   -9.33816839162567   14.80973005725884
C        -2.75016428775074   -9.57277948337771   15.82638906383934
C        -1.36575941655075   -9.15734175718481   15.71029147216662
C        -0.93655912739943   -8.26028351871514   14.79675684228680
C        -3.00614210509470   -9.58492343288105   12.37767540852408
C        -2.24486823719606   -8.92878050082842   11.22631876594596
C        -4.39280139192470  -10.02373883524740   11.90087091164321
C        -2.21461439418927  -10.82587970307599   12.81334948519728
C        -3.14337105175944  -10.33864689440910   17.08118891442488
C        -4.65530750158446  -10.56397565912882   17.17383064942024
C        -2.70764316969138   -9.55759617855462   18.32835211948971
C        -2.45002683052056  -11.70840466462309   17.06227171686908
C         0.50245458791588   -7.79003026788980   14.69777099189960
C         0.87319169371878   -7.62621213039300   13.22211992519989
C         1.47814230811389   -8.78567912760795   15.33613308768691
C         0.64205368317046   -6.43833112387652   15.40471063568591
H         0.81265672311082   -2.58530800187940   12.14916385090508
H         0.87133713414542   -3.12994849224078   10.46430265517032
H         2.84971314951074   -3.96609773069032   11.76385916203071
H         1.75984308588578   -4.73062693768534   12.92387450985186
H         1.84643254520943   -5.33104169941107   11.26330218114986
H        -2.15695178293590   -5.65683270134856   10.32781362524084
H        -0.60292689474636   -6.35527813935163   10.74982776822239
H        -0.78243289463612   -5.87830043563926    8.31264630543710
H        -0.97894811931344   -4.16186189542153    8.63995652560008
H         0.54036964220474   -4.97099741861462    9.03639534128281
H        -1.77930158839518   -2.64451958347225   10.00837071933580
H        -1.58705643961354   -1.87066386148953   11.59237401352197
H        -4.00433581300625   -2.11982149665932   11.13793922571007
H        -3.80795737810280   -3.85437438181816   10.86411604651943
H        -3.51847547168681   -3.17601661923314   12.47291905519430
H        -2.47091866197196   -6.52389092379489   16.93885833151670
H        -3.96221493625009   -6.45754678578847   16.02576501766806
H        -4.53104910197483   -6.63493442691821   18.39420017776369
H        -3.51312428414896   -5.26438026309764   18.81603491931426
H        -4.98556351122589   -5.02078042110940   17.86957480967483
H        -2.67452700139848   -3.29467857157420   18.02887631740616
H        -1.78104870875882   -2.40676720294967   16.78332825813422
H        -0.23652370890228   -3.36634301793793   18.50097940986809
H        -0.77928322188222   -4.99320564154621   18.08046886605807
H         0.07717404628326   -4.00452410104606   16.88749767499314
H        -3.92160007406456   -2.44868547140396   15.13371893164596
H        -4.66612840701692   -3.06813961920266   16.61092090351835
H        -6.14209546572675   -3.33753191037626   14.56002282675969
H        -4.91937509015529   -4.40031671221545   13.85731615252764
H        -5.77310503148631   -4.88742191094886   15.31975357533566
H        -4.61616966245149   -9.68858195891045   14.81928683942246
H        -0.67018266810949   -9.57623458826597   16.41786844733823
H        -2.16452144407243   -9.62702665248861   10.39508865025485
H        -2.74987027130803   -8.03798540989877   10.87132047130289
H        -1.24303806924945   -8.65675313494384   11.54585961848518
H        -4.30041829365391  -10.67619416745114   11.03490348719874
H        -4.91620172799754  -10.57014479948315   12.68178722576508
H        -4.99679351575110   -9.16507441603273   11.61706376106987
H        -2.04896974254316  -11.47472704850821   11.95546035807357
H        -1.24960233128999  -10.54026169370220   13.22425447855924
H        -2.75370866237789  -11.38921407991159   13.57042928494336
H        -5.00625494581445  -11.21360445757271   16.37579595783925
H        -4.89650905322256  -11.04104851351614   18.12174164785571
H        -5.19164784568580   -9.61906313040937   17.12093748899365
H        -1.63236251981637   -9.40563157901226   18.35387845838415
H        -3.19063019223973   -8.58369763545403   18.34803256476086
H        -2.99192941467633  -10.10122327936239   19.22732544213836
H        -1.36828912446157  -11.60511023050235   17.04856440866419
H        -2.72689085378312  -12.28148542582575   17.94491911678536
H        -2.74849098893194  -12.26973438292618   16.17920279808154
H         0.75279487855561   -8.56824277355727   12.69009782522803
H         0.23356438702658   -6.87126680257713   12.76743011792634
H         1.90991209478168   -7.31074897335726   13.12554189492535
H         1.32640577028864   -9.78658862818631   14.93748082347786
H         2.50058994605689   -8.48285940823961   15.11947915273152
H         1.36514013960743   -8.81651899817174   16.41702085641452
H         1.67234147799951   -6.09077863057201   15.35612220407096
H        -0.00671802165964   -5.68755566084241   14.92275263029372
H         0.35633285070949   -6.52980018803897   16.44970855570294

