36
CSD_code = HASSAV | q = 0 | S = 0 | Stoichiometry = C15H18ClNRu | MND = 9
Ru       13.40102158265498    5.66023540343518   10.28056466888148
Cl       13.75020630058661    3.93103458861073    8.71258852755975
N        15.31641355000528    6.45000967550386    9.62808452140952
C        14.70921665148800    4.62614081449227   11.46345101294719
C        14.38556064016845    3.91600009852620   12.61018234730751
C        15.36941285078960    3.30650674786024   13.37686682801715
C        16.69940623114408    3.39497666950888   13.01057354335516
C        17.04607922465167    4.08263248699437   11.85924557384157
C        16.05890156659402    4.68210969781348   11.09677719051209
C        16.33663901448219    5.39126649706060    9.79966799191523
C        15.71535532967238    7.59989878609525   10.44232873254442
C        15.25425447412753    6.84718069419137    8.22051508383832
C        12.20984932003108    7.60368496778027    9.93194233566889
C        12.48481896246334    7.45588364171775   11.31857639104718
C        12.08869897705797    6.28417839618784   11.98728266421128
C        11.43104862952301    5.24869146530027   11.27544717354066
C        11.21242231493822    5.39561387210707    9.89264877415305
C        11.54337207062298    6.60041690956290    9.22675787412676
H        13.35390348289680    3.80823985548431   12.91874577636126
H        15.08999615039527    2.75576186554699   14.26421188649707
H        17.46298050498476    2.92229787468276   13.61065285716388
H        18.08048917092495    4.14366274530110   11.54944685789896
H        17.34726420493048    5.81870847447801    9.75582590942378
H        16.21505934461660    4.67018422644073    8.98359566214706
H        15.77407085107571    7.29620324961934   11.48869264726014
H        16.69871870352879    7.97098156145400   10.12743341372241
H        14.99489077934895    8.41082682911973   10.33950927049250
H        14.90129563810819    5.99907899729966    7.63099750899304
H        14.56319212321451    7.68133267293646    8.09650777943356
H        16.24256808797348    7.15449814124750    7.85987449343314
H        12.42839773807571    8.55027944556077    9.44602690620285
H        12.89919492579131    8.28541543403802   11.88114548148567
H        12.21133355996546    6.21194339257249   13.06217691112607
H        11.04944469669467    4.37847091397977   11.79751060340993
H        10.68421226478350    4.61762306266375    9.35004000765328
H        11.27421008169025    6.73822984482584    8.18770479241845

