46
CSD_code = HASYOP | q = 0 | S = 0 | Stoichiometry = C18H24N2OPd | MND = 4
Pd        2.15447272552219    0.42888790805355    2.46506270402428
O         2.26054353221537    0.64621710848345    4.61049414067860
N         0.79535591949563   -1.08182533955929    2.80483046630346
N         3.34495338451726    2.12728222312589    2.16289131890722
C         2.12782784482531   -0.33963904819353    0.58306483541128
C         3.07320568507441   -0.29837868157504   -0.43976356881173
C         2.94014509344457   -1.05577765338451   -1.59583288837476
C         1.85755675144268   -1.89784469643417   -1.76050241122003
C         0.92259142476964   -1.99983166902927   -0.74493240062688
C         1.06327605674452   -1.24132981628698    0.40556543770145
C         0.08463084824605   -1.35095124283413    1.54488203695243
C         1.60480916678755   -2.23399959810243    3.20136052113504
C        -0.15231456561093   -0.75703726216199    3.86737284780332
C         3.15618099188546    1.37443112025506    5.19501335518916
C         3.67595141212426    1.00766692289977    6.45488411822825
C         4.63136918430157    1.77153936959304    7.08306007514591
C         5.11246423299625    2.93231403060408    6.49363233750995
C         4.60789186810669    3.32316208082391    5.26676372138022
C         3.63969873593294    2.57589587855329    4.61940924178311
C         3.05653919349355    3.02839709784510    3.31104801419440
C         4.77455819495084    1.82200933125420    2.12717712668194
C         2.94838567815229    2.83948168801179    0.94492825448185
H         3.95583601830429    0.32667522756383   -0.36229641852122
H         3.69285100177331   -0.98667139174343   -2.36909663692297
H         1.74963553605490   -2.48282015005106   -2.66212578977806
H         0.08363679234511   -2.67568158348903   -0.84523316139474
H        -0.69890976834846   -0.59193476115186    1.42268578390427
H        -0.39957189495242   -2.33913743720894    1.57781311059937
H         0.96748101240769   -3.09318806406002    3.45288844104284
H         2.27338463711414   -2.51471575493326    2.38264395876712
H         2.20120362911551   -1.96107807642720    4.07648519435757
H        -0.83783151939866   -1.59533594208274    4.04889074255101
H         0.39908815217693   -0.53147534366004    4.78115201634612
H        -0.73181635359992    0.12568000335004    3.58582203612202
H         3.30251442365606    0.10257573218777    6.91366290576320
H         5.01393367689535    1.46109815736284    8.04618026076717
H         5.86628088109240    3.52666752694097    6.98777961138733
H         4.96776199512815    4.23565346916605    4.80634533397818
H         1.95831095369249    3.09465840140446    3.39653197283708
H         3.45160600404367    4.02924728531429    3.08013610219895
H         5.05873517326964    1.31349785880017    3.05113526135545
H         5.36827376083116    2.74154107842611    2.03790042263171
H         4.99779318045421    1.17063727393034    1.28187701170855
H         3.50739030346234    3.78145940215677    0.85071351707567
H         1.87922429059514    3.06639894370748    0.98657295633227
H         3.13679475448860    2.23207839256081    0.06212608241054

