55
CSD_code = HATCEN | q = 0 | S = 0 | Stoichiometry = C21H26N2O5Zn | MND = 5
Zn       16.57477309848746    6.05869821650031   -0.01243118604169
N        16.48245684520305    4.07068284452955   -0.38921916660430
O        18.38765500967424    5.83343089278571    0.48768008033574
O        20.12741049479566    6.51121638352918    2.30948814995054
O        17.52291495093339    7.96079910808520   -0.82672899996404
H        18.40586573884799    7.62383774775941   -0.62261663086566
C        18.03487160500107    3.66619015202320    1.41585272913929
C        18.63868242613548    4.95237251689811    1.38598116840137
C        19.61760030215695    5.24891276293176    2.39620993663795
C        19.95185845131422    4.31781628259636    3.34604340877088
H        20.67735684892222    4.54443522720616    4.11268006682703
C        19.36069593482848    3.04481050647734    3.33782797135618
H        19.65107995592631    2.32758582340362    4.09047158322130
C        18.42983654230644    2.72618343047756    2.39361614587604
H        17.96443618278420    1.75043039919422    2.39040493645603
C        17.06374466669108    3.28752242479937    0.45446390961712
H        16.82066823249272    2.21678834321587    0.42319536972010
C        15.65759882418639    3.47867207200523   -1.41441571758730
H        15.46245430948653    2.41888006634248   -1.18787457237066
H        16.22404858976694    3.52393876335436   -2.35355921205720
C        14.32576781490541    4.19789929002160   -1.62326375202338
H        13.74624520440672    4.17029303055479   -0.69806020239630
H        13.76994802382450    3.65873069197636   -2.39318456132910
C        20.91923776091025    6.99211950909685    3.37091826395523
H        21.87069914175130    6.44128373329032    3.42029998779116
H        20.39090129909876    6.86032800812299    4.32629152115228
C        21.18271522338710    8.46890182582347    3.11575698264893
H        21.72601586936483    8.59286738087988    2.18303341955563
H        21.76684130744939    8.89058409541322    3.92929633352556
H        20.23790348983156    8.99999049484836    3.03665728871945
N        14.85034274962903    6.46230223848086   -0.92049517824831
O        16.05188217376019    6.95682450848392    1.54197901853173
O        16.22139726220327    8.44528395305611    3.66108392595428
C        14.12794755611331    8.10260493302428    0.70244547187644
C        15.15810948701796    7.86768002004194    1.65427323316461
C        15.17717064986303    8.70724096861218    2.82660292918224
C        14.22227983838643    9.67195308834745    3.02100153658677
H        14.23747118564145   10.29701717181877    3.90075469912499
C        13.20165746707413    9.86556363704068    2.07699085965925
H        12.45880288986077   10.62741363312183    2.25706999685246
C        13.15746827468735    9.10088050095818    0.94950598295186
H        12.37748927650691    9.25258199718352    0.21677345109547
C        14.00752884552030    7.32852652004763   -0.48056718100064
H        13.08783437434883    7.49414893007087   -1.05687357053366
C        14.48961605719137    5.65851751078661   -2.05795180965295
H        13.54942619148263    6.01593967715013   -2.50373974191745
H        15.28500166616373    5.72972964750400   -2.80452915654870
C        16.34154376827650    9.17972930671401    4.85696645156886
H        16.44735504894292   10.25309091496482    4.63708432414223
H        15.44674316411510    9.04064736396877    5.48147034747697
C        17.57572757634997    8.66865474623854    5.58493879548908
H        18.45600516013748    8.81626374841648    4.96571418547776
H        17.70301294399868    9.20016031334814    6.52418167360797
H        17.46908352505389    7.60568072295781    5.78257260782203
H        17.31021872282956    8.53626192352582   -0.08446810507613

