64
CSD_code = HATCAG | q = -1 | S = 0 | Stoichiometry = C21H33CdS9(1-) | MND = 6
Cd        5.74451431963812    1.50251371757352    0.25758259107175
S         8.43954547252451    1.89009521277885    0.53846866989255
S         6.44370119054277    2.65516374589130    2.59815196798860
C         8.01782001146712    2.52375603848108    2.03145468183969
S         9.22273876026324    3.11147094858285    3.15015826566318
C        10.81695141374501    2.85779053571574    2.26692758481989
C        11.92984125944214    2.70944166724283    3.29322740661636
C        13.26447976018403    2.49966460674169    2.58177594540145
C        13.55327402509008    3.66142112269599    1.63583829330429
C        12.42652491329145    3.80866015115492    0.61768033833353
C        11.09002617407683    4.01947528085755    1.32396251757781
S         5.54039348030536   -1.04212708928127    1.18462776243287
S         3.18556660976171    0.72937821811994    0.83266986106555
C         3.89469983757057   -0.72614905478245    1.26707331505801
S         2.94141380231839   -2.07047838269888    1.84613183927757
C         1.22222016748693   -1.41523961822016    1.87064122642215
C         0.24627804389769   -2.57382357011090    1.73440825173073
C        -1.18580021623392   -2.04384009902572    1.74662952863934
C        -1.45402654662240   -1.26069769568772    3.02832796700812
C        -0.46106131636170   -0.11029697397682    3.16510330658211
C         0.97211409704299   -0.63485578050233    3.15189118518651
S         5.51354859219953    0.91911405298930   -2.42603135288852
S         5.27277543027436    3.66399194627921   -1.32594984836660
C         5.23128696981088    2.56255451263238   -2.59172621061140
S         4.86615971154990    3.27575399175332   -4.14448368882311
C         4.87658280495653    1.84570922370128   -5.30268711275102
C         3.97839339066595    2.16253515957469   -6.48862302608420
C         3.96765862676854    0.98153998231944   -7.45660164636560
C         5.38449498813164    0.65999305777563   -7.92263007442498
C         6.28131504328856    0.35863821048204   -6.72559392635535
C         6.29507289056777    1.53734748377487   -5.75606055378931
H        10.68903364169514    1.93356847130870    1.69700401132994
H        11.71440892341198    1.86699834540474    3.95287208717254
H        11.97493549707382    3.61306737038284    3.90574880481573
H        14.06474086714550    2.40739044892544    3.32002714133650
H        13.22455611773536    1.56988823288506    2.00988457857325
H        14.50292586072744    3.49527743990682    1.12120386655043
H        13.64205292637002    4.58458952164144    2.21406434438013
H        12.62776488843094    4.65234188602771   -0.04591030548124
H        12.36771934020728    2.90615089330665    0.00577602889649
H        10.28645956391962    4.08807095756167    0.58906546266378
H        11.11239215552864    4.94992588244674    1.89664806716017
H         1.15467342520120   -0.74886427627471    1.00646477090013
H         0.39216730464049   -3.26600541207946    2.56701618523727
H         0.44288741331495   -3.11654408109658    0.80805109342234
H        -1.33314179448526   -1.38786513774503    0.88571414947382
H        -1.88806099758468   -2.87654275993891    1.66024329781793
H        -1.35472593160617   -1.92916710239950    3.88726089146972
H        -2.47592004902687   -0.87347506832500    3.02096756106925
H        -0.59273005259900    0.58625530914334    2.33453000194526
H        -0.64359154881175    0.43517348923858    4.09337839157520
H         1.13905897415196   -1.28993511871512    4.01051401159002
H         1.67432125916623    0.19795496132489    3.21416427759472
H         4.47691917909860    1.00612920916079   -4.72751683758461
H         4.35505377948058    3.05385161365070   -6.99595129238798
H         2.96668820794843    2.37702242833258   -6.13972761684108
H         3.33291769974980    1.21443380553154   -8.31500503486410
H         3.54655833179263    0.10845749429635   -6.95306838448406
H         5.36764612480150   -0.19604339575542   -8.60173197096309
H         5.78725756608081    1.51537582015397   -8.47094049160162
H         7.29865209903944    0.14788507798123   -7.06216344023166
H         5.90956298570959   -0.52605959619392   -6.20458912614674
H         6.91037525659511    1.29826211969417   -4.88738203585926
H         6.71673727749927    2.41933056741176   -6.24445755406790

