46
CSD_code = HATCAJ | q = 0 | S = 0 | Stoichiometry = C21H17Cl2N3O2Zn | MND = 5
Zn       10.23791795491145    2.54227681799920    0.07721691215847
Cl       11.14075383289496    1.80753272974655    7.27366112939005
Cl       10.54235343758265    1.60233548124066   -7.14258750679937
O        10.33291561035736    1.33141242556192    1.51169964362306
O         9.91973436471249    1.33082630466414   -1.34713505693853
N        10.81281848129398    4.03472701978397    1.36682613199756
N        11.24233850694871    3.75854984293715   -1.23427401501593
N         8.19503127964278    3.09529032088291    0.09613002468902
C        10.84733322434299    2.74792443072652    3.38270158794685
C        10.52966357713634    1.49483518217740    2.76499067066316
C        10.43217237155069    0.36707212189479    3.62974990238952
H        10.20078649559797   -0.58051372577582    3.16830542960992
C        10.61238405010102    0.46033588220636    4.98081468233616
H        10.52597550961826   -0.41177647933506    5.61105467556065
C        10.91553629315158    1.69929856674879    5.55719580177771
C        11.03799629233932    2.81577082493725    4.77557070468978
H        11.27889141722825    3.76803361628952    5.22575767821397
C        11.02797918002412    3.93836312728280    2.62529216874765
H        11.38456026428639    4.81641780503055    3.18013105451983
C        11.09227945401403    5.24849414993389    0.65831256348237
H        10.13974044305928    5.69829887179850    0.35653704492990
H        11.65254825829181    5.97197874305564    1.26617287911904
C        11.88422246475617    4.87914611547716   -0.60185813445654
H        12.89439724876993    4.57604431666502   -0.30029282008464
H        11.96546356439639    5.74254318039420   -1.27526533984294
C        11.30840571325500    3.61874080618402   -2.50882578038728
H        11.83619371243301    4.37818536690694   -3.10025439167472
C        10.75150604059124    2.53864948474053   -3.24440410518489
C        10.09270440802062    1.43689948882829   -2.60685694191042
C         9.60170497390430    0.40800896253677   -3.46293930561813
H         9.11195043069669   -0.42743085852133   -2.98697465335248
C         9.73670008948272    0.45709162099549   -4.82075201632933
H         9.35442023810424   -0.33750481329239   -5.44350085199051
C        10.38085325822256    1.54882728444733   -5.41638681414050
C        10.88075843600894    2.56295020373192   -4.64693366408104
H        11.38291915598501    3.39863746333298   -5.11283704060859
C         7.45862832991407    2.83333975567624    1.16906738357625
H         8.00349388982392    2.59412086787263    2.07065276978256
C         6.07374182257495    2.85743984101909    1.15475013078856
H         5.51874420807159    2.63345693064810    2.05195458872283
C         5.42492664987218    3.16630446163067   -0.02993149675394
H         4.34644158898152    3.18857154183780   -0.08068730279110
C         6.19335775569865    3.44438930766422   -1.14939779169698
H         5.73426427823762    3.68981787511606   -2.09400705970677
C         7.57247028863936    3.39449133862560   -1.03767169045265
H         8.20642115447290    3.59749539769382   -1.88917177889842

