116
CSD_code = HATFUF | q = 0 | S = 0 | Stoichiometry = C35H71N8SiTa | MND = 6
Ta        5.36506906001158    2.86621220251279   11.00019406745556
Si        3.98696197472238    2.94295666928344   14.24561474299935
N         4.75759109809029    2.80353172518465   12.73214422107364
N         5.50496796524366    0.86391787431165   10.80094990659191
N         3.51335331145907    3.35902066425967    9.85737020547572
N         4.66318060464729    5.03695359776242   10.69157351139327
N         2.64618318631897    5.62290197105537    9.60381422097353
N         6.78201162089064    3.23607394532761    8.99138667742781
N         7.46845459559809    3.30444358344111   11.10341462793581
N         9.03381203828608    3.85822873653220    9.34713509714214
C         2.38336094178289    3.98815089045974   14.05170380565169
H         2.37845760914930    4.85306084051002   14.70735911817810
H         1.49200203040960    3.40786998913250   14.26777685273368
H         2.31171796634332    4.34170749859562   13.02855030238969
C         3.47799702369987    1.23413850061478   14.96517808188289
H         2.80997692632865    0.70669744433638   14.29178247306807
H         2.96499692045889    1.34943361044023   15.91501807746930
H         4.34306556275387    0.60133213566652   15.13536971254188
C         5.06072796329166    3.79070633916762   15.59636325641743
H         5.94991977110941    3.21187860661402   15.82217064912930
H         4.49974682745501    3.89793037780676   16.52010895480127
H         5.37977073672591    4.78151796007332   15.28988003953566
C         5.07580155739021   -0.15009703250545   11.74246489297466
H         4.29565894868744   -0.79228011702821   11.30785423995010
H         4.68718513842726    0.34354843949214   12.62875410912662
H         5.91436009858549   -0.80015013543950   12.02728854201652
C         6.05287933464410    0.22010911658117    9.63064592691665
H         6.94154006370554   -0.37534021174835    9.89062400621454
H         6.34453692162114    0.97303443401847    8.90376134801449
H         5.32947134154893   -0.46906271815356    9.16774312690287
C         2.30585914132519    2.63923994544428    9.51810001367877
H         1.51080291122304    3.31488140003836    9.18028076581212
C         1.79833187263173    1.89315930162602   10.76232901536373
H         1.54824271338187    2.62099033787579   11.53537193484236
H         2.61644390356548    1.28105487588654   11.14901197232666
C         0.58729028175295    1.02548324848213   10.43392685652944
H         0.26239073250020    0.49639381510099   11.33172386686622
H        -0.24125852007493    1.65704930018610   10.10174372573568
C         0.92884036033111    0.02618915982058    9.33376566276034
H         1.72268788196473   -0.63648485352934    9.68402680426869
H         0.05605932427569   -0.58693119506461    9.09775771239122
C         1.39960809913616    0.76375773864389    8.08479068766569
H         0.58760256132520    1.39235017668381    7.70918344768504
H         1.65370251373867    0.04722338776984    7.29993339197167
C         2.61191129282367    1.63324359679889    8.40127953152872
H         3.44378501963911    1.00968674413184    8.73448601415521
H         2.92831075859673    2.16955543286217    7.50229630244040
C         3.57904414509150    4.66638777636094   10.05990836061695
C         2.10689831935344    5.54013968320018    8.26673643846795
H         2.74161793915707    4.91184105526954    7.64848860848643
H         2.09426009822526    6.54834255790280    7.83751595900284
H         1.07815687788065    5.15486200115782    8.23645181107417
C         1.72441697864404    6.17721417329130   10.56697462879744
H         2.18906561868701    6.19966056141088   11.54817997543102
H         0.79709451205486    5.58805635481529   10.63466860939758
H         1.46256168305034    7.19670732639640   10.27093959855416
C         4.98184043502610    6.41018449386046   11.00854441725854
H         4.29204946099278    7.09945157916496   10.49951402928705
C         4.89179819241356    6.59923789781928   12.53022235744566
H         5.52698151284799    5.83934164533856   12.99038653889193
H         3.87245672311234    6.40947909723962   12.86771996339091
C         5.33019115649375    7.99731373301976   12.95237694411769
H         4.66053116989575    8.73955468584859   12.50989076204717
H         5.26162375260876    8.09139778857641   14.03821441980092
C         6.75797611339891    8.27266249019047   12.49424117888565
H         7.05808922947748    9.28302008747729   12.78199790690342
H         7.43484463768683    7.56860311964845   12.98329447954027
C         6.85940012453198    8.10856967203559   10.98179898336787
H         7.88685915026962    8.28528565951197   10.65301142105653
H         6.22263659567602    8.85176646311375   10.49488895015002
C         6.41726710296014    6.71096585575710   10.56200102990565
H         6.49738593825488    6.60660558287244    9.47762694834173
H         7.06070598860933    5.95694416484607   11.01985867979180
C         8.45286503613082    3.07182402910683   12.13964751965641
H         9.47131504234597    3.24553898220754   11.77144365565537
C         8.36050990058848    1.61092832108019   12.60768884778888
H         8.57848740545336    0.95037270318182   11.76420557659649
H         7.33173161949453    1.42999109502630   12.93040714731970
C         9.32680677519444    1.34141239625429   13.75678356373968
H         9.24607686520351    0.29832592516647   14.06933750382909
H        10.35537017621263    1.51091052056490   13.42554610200529
C         9.01269282437293    2.26283055029016   14.92970643222473
H         7.99928079341529    2.05934494037064   15.27866661156148
H         9.70416578021166    2.07226207636128   15.75366878696224
C         9.11067371620724    3.72029309476550   14.49349802581995
H        10.14025676119742    3.93978740224046   14.19579716836966
H         8.85985044062630    4.37614285527926   15.32953658200433
C         8.16884143837678    3.99888300600769   13.32624656944252
H         7.13046808410331    3.83136235506038   13.62167107565095
H         8.27487296816914    5.04002468253814   13.01086561097991
C         7.76842001382931    3.45391609155596    9.81513732115213
C         9.84391253365518    2.90672796484302    8.63003803722851
H         9.21943538994451    2.09924341420707    8.25817087984846
H        10.61999941324169    2.47230412877312    9.27832262658980
H        10.33973914255686    3.39370313326724    7.78411904323551
C         9.78083387328317    4.91725348808167    9.97712580071289
H         9.13761732880611    5.47808907668668   10.64911020110861
H        10.14814083332440    5.59827182334943    9.19980068690329
H        10.65377743840022    4.55129629638786   10.53581602084646
C         6.84323226115575    3.62797750288463    7.60083939010545
H         7.76041514110622    4.20569588130650    7.40403191730914
C         6.80744947704188    2.41557154631338    6.65767421155931
H         7.64907027393983    1.74845625695504    6.85922395179180
H         5.88610415879114    1.85677582847295    6.84010790776795
C         6.84640947643517    2.86551303438888    5.20047008423088
H         7.77367044235741    3.41353370965644    5.01458381745323
H         6.83792524089760    1.99158619446231    4.54451907867962
C         5.65479856087012    3.76408788003390    4.88592246503395
H         4.73062285111029    3.19327383935458    5.00677521981377
H         5.70481494070035    4.10317908691166    3.84854294086177
C         5.63709137812384    4.96303119343220    5.82886787461267
H         4.75917473610856    5.58286184150446    5.62909913725864
H         6.52427593752589    5.57638297729121    5.65021311622244
C         5.62550135585175    4.50361960675411    7.28222244370129
H         5.60842053554444    5.36532826718866    7.95192655204084
H         4.72965819416677    3.91262014324905    7.48566699391432

