105
CSD_code = HATGUH | q = 0 | S = 0 | Stoichiometry = C54H43Br2N3NiO2 | MND = 4
Br       11.47933832774497    4.75652047010090    6.53404957932582
Ni       10.99576485983170    6.66379227453819    5.52157904033360
Br        9.07468922878619    6.88282399961465    6.60120051576091
N        12.86847750554373    7.00451022156780    4.92111497285276
N        10.49647881754498    7.81575201911098    4.00635403981949
O         4.91144116864377   10.11588470231989    2.45945040364662
C        11.53364074564639    8.04052438838671    3.27751904748737
O         4.72119174033336    8.12317334562394    1.67836512483071
C        10.42931096111355   11.06745605795681    3.72768680441966
N         5.32819462318753    8.99190027909783    2.26962493011901
C         8.64666276801453    9.36713233446260    3.87743150533698
C         6.64213229413531    8.67484165742820    2.75927436040881
C         8.43366654921128    7.10129924317989    2.98078025454023
C         9.19733520175452    8.11254085797694    3.58388015845539
C         8.57179696163563   11.30738253062069    5.44469148022101
C         9.46659663280259   10.37018355620919    4.65774328429948
H        10.05484181013845    9.80282726823033    5.39443650434856
C        13.65665703528447    9.57301616772244    7.16344709897016
H        13.76979478596438    9.71605222420343    6.08892801416748
H        12.91099914983998   10.27200040931432    7.53663201832560
H        14.61108732267359    9.80432497721668    7.63209156711875
C        11.74049585387533    8.65061522922887    1.97711332070934
C         7.98680126999640    4.65405565832748    2.69421352357351
C        13.86075253250635    8.20332202025428    2.91931366768132
C         7.36442004639427    9.64421004721421    3.44231867689090
H         6.90791738329755   10.60192101048245    3.64007455877609
C         7.15297850442692    4.44104334893915    3.78795250144385
H         7.28200047035969    5.03294297021967    4.68279956210212
C        13.14507909550766    8.73364504494594    1.81785817264732
C         7.15465532999070    7.39989452114109    2.55433683009904
H         6.54192425147645    6.65310753500920    2.07301190675580
C        14.22998493622168    7.15877651931888    6.88242661440023
C        12.68105576077655   11.72201003407962    3.16949569524416
H        13.73304062133064   11.74273471744400    3.41645710158532
C        14.91120904528051    5.66350026862586    5.07631707124004
C        10.03597365195067    5.76790447433224    1.67627802390684
C        14.03283197905551    6.62614955481530    5.60167420181389
C         9.04659560079894    5.72775757044142    2.81531045007815
H         9.60992126197646    5.50472001796705    3.74753689493061
C        12.84951508094500    7.68188071075194    3.82828454898049
C        15.23373043377376    8.26791327033910    2.91297286810937
H        15.82553734156837    7.89430229564171    3.73556704739380
C        15.36941103494670    6.80446812457978    7.58689667317906
H        15.53001107038541    7.22270431208852    8.56914312336117
C        13.25294543812986    8.13309473953660    7.47823431315757
H        13.21954544633667    7.99393408990106    8.56017185260568
H        12.23232796118901    7.94217545629430    7.09056866074388
C        12.89527938455697    9.75419792725069   -0.32194652389983
H        13.31576186280901   10.18428660034694   -1.21895460844494
C        11.33129826341946    5.30132791478929    1.85152429558101
H        11.61228754289619    4.85935750092563    2.79879268881429
C        10.92834299527951    9.12466687316252    0.97792031354172
H         9.85280843876624    9.09125884146012    1.05421930368166
C        13.76073045720429    9.29125632718204    0.69514905925218
C        15.86774494999184    8.84072057385383    1.79592474216420
H        16.94672202281842    8.88851318232776    1.79400967602113
C        16.03628526403681    5.33718749210573    5.81549054057969
H        16.73190268067327    4.60799544773357    5.43488820440090
C         7.82236532242612    3.88102351880995    1.55518174795336
H         8.46864482041443    4.02349158536593    0.70125752858927
C        11.78291788470249   11.11363928293079    4.02882299881075
H        12.13536575218359   10.67386799555728    4.95051352592171
C         9.98560360666127   11.65521564112666    2.54840022225827
H         8.93385222339881   11.63173220388453    2.30280898901143
C         6.16349014511574    3.47845865963000    3.73594905413478
H         5.52304592143895    3.32358105481528    4.59082585637861
C         7.73713670080999   10.74784447675555    6.40797785113723
H         7.75031627741891    9.67963352632772    6.57212472755544
C         8.55887350513392   12.68021769871419    5.25203550216682
H         9.20943559113293   13.13438949243296    4.51884641217894
C        14.54826647613968    4.95661789076046    3.79660740287987
H        13.57964752017319    4.47262344306988    3.96268248730729
H        14.41594991167327    5.68945149047474    2.99516491857427
C        12.25702449332883    5.38654105728181    0.82626451785001
H        13.26136660260839    5.01772561768084    0.97398512491466
C        10.60030598157246    6.38854109804474   -0.58079686419172
H        10.30851965543570    6.80690827360872   -1.53271431166219
C         6.87716227077379   12.92008272785632    6.94946032776995
H         6.21775335406053   13.54760986471026    7.53026881590755
C        12.23063744299314   12.30392246976730    1.99830351089196
H        12.92856550946707   12.78071605973048    1.32647185649822
C         6.83070581094140    2.91504856548977    1.50679851118206
H         6.71172862852697    2.31858727552587    0.61411352109927
C         9.67681509732239    6.30661007300870    0.44563400758316
H         8.66743689403032    6.66121502340500    0.29292955771875
C        11.53385170395111    9.66391953797160   -0.17133362330482
H        10.89151491901419   10.02593544755376   -0.96000752347109
C         6.89375273882017   11.54974493480332    7.15285845112804
H         6.24957223250534   11.10230857332549    7.89435673348625
C         5.99822982938204    2.71354965430499    2.59270708862933
H         5.22620080206688    1.95990841775703    2.55071819044439
C        10.87981266159832   12.27450660743162    1.69424270078468
H        10.52138931062850   12.73521059772293    0.78561645265799
C        16.27915869121470    5.91582390675575    7.04955219444523
H        17.16575590074875    5.64706475347717    7.60313216076952
C        15.53930038796151    3.89934482221971    3.32953054626445
H        15.17551098544190    3.44511323663029    2.41008452158546
H        16.51493066155881    4.33676672613878    3.12727181782580
H        15.64657545132066    3.11279500126331    4.07183679765572
C        15.17280993923636    9.32863444328664    0.71486432884143
H        15.70408418963436    9.74968356866430   -0.12593122603217
C        11.89566036383394    5.93794474509547   -0.39009928230981
H        12.61895522748295    6.01093467774171   -1.18850992393941
C         7.71374038136771   13.48167571267031    6.00214888152687
H         7.71213646749334   14.54994736055205    5.84191665462569

