49
CSD_code = HATMIB | q = 0 | S = 0 | Stoichiometry = C21H20BrCuN4S2 | MND = 3
Br        1.61193835232459    4.41386175205110    5.90333579421165
Cu        1.67183036140064    4.53710117083999    3.62062688095668
S         1.90008786720939    3.03306289002541    1.81279744333255
S         3.18721389494761    6.26069624964226    2.85725021562297
N         3.97057539585614    3.54657854907230    0.17240625306181
N         4.55617655329980    3.47354293529481    2.27451191724859
N         4.84996631999570    4.66780322845063    4.32077151898204
N         4.77934505070056    6.75213240587315    4.97010787272157
C         4.26075501114146    5.87633599791476    4.08057442178427
C         4.09852597176954    8.49647072427548    6.53063539791797
C         3.42223468448463    2.16496648463648   -1.74500497620510
C         3.49139633446718    3.36923723708365    1.42443789895534
C         5.32146097614578    3.77135272155843    0.23487264673190
H         5.90448008751096    3.93791417244613   -0.64671157931548
C         5.71595809874664    4.80862584962882    5.38336149677139
H         6.26893182478539    3.97927044853365    5.77058526921770
C         3.90003464471292   -0.26812524392642   -2.99533515227915
H         4.08303568830912   -1.21362593083057   -3.48357143389023
C         2.92304079829047    0.98788013591509   -1.20035695046723
H         2.34283842800754    1.02739688490837   -0.29058385414536
C         5.68702849366125    3.73598134311300    1.53242375127027
H         6.64088440414069    3.87604273977485    1.99654943029490
C         4.40550180118267    9.96154230195123    8.41232254292313
H         4.85605747443017   10.84380259941928    8.84309866743499
C         5.66892025927682    6.09649548890985    5.77971696215815
H         6.17844096152537    6.59916975610232    6.57480277139606
C         3.18217514625660    3.47415978920342   -1.03520242550210
H         3.44697055599253    4.31917738319791   -1.67600594010619
H         2.13339117669408    3.55859438591594   -0.73526452461704
C         4.16513194416075    2.11391293063198   -2.91558844492044
H         4.55384075687633    3.02586885778703   -3.34716905951923
C         3.16180373364425   -0.22305719841914   -1.82412602955792
H         2.76730327048624   -1.13300939430006   -1.39755282948043
C         4.67535692761947    9.62489838808791    7.09714818125773
H         5.33385436708825   10.24700473686927    6.50645224457336
C         4.39989274795017    0.90142327214793   -3.54130147071456
H         4.97381951095735    0.87097152574076   -4.45550661434813
C         2.98988076219159    8.03839652171924    8.61192629584528
H         2.33201005675774    7.41191561045934    9.19362431486438
C         4.38571655152954    8.13422290775968    5.09589060677122
H         3.49005120561743    8.26162345737963    4.47707263583413
H         5.17644848560751    8.77529451839321    4.68971004434462
C         3.56415310607218    9.16709448760847    9.17237360482466
H         3.35699608076934    9.42909688551224   10.19935614482963
C         3.25173855940369    7.70304136375312    7.29563017104979
H         2.79524698835777    6.82014716218670    6.87480828461368
C         4.49042597788070    3.41892002820622    3.70567579974974
H         3.44984885989156    3.15690689444115    3.97208650104206
H         5.16568349000088    2.64798259311933    4.09073730245764

