73
CSD_code = HATNIB | q = 0 | S = 0 | Stoichiometry = C32H36ClN3Ru | MND = 9
Ru        1.52398048067408    5.64353957732199   10.66225872472511
Cl        1.73553957329892    7.97520601301512   10.35714251974888
N         2.52864640833268    5.95739858445642   12.47917668618510
C         5.44395110356527    8.16490170503151   10.58920303559235
H         4.42643006370376    8.16935144727038   10.22992412707907
C         3.69671939290541    6.14990388108875   11.86718676505427
C         1.20906060900798    3.60279148366674    9.84553635129825
H         1.90709584586808    2.80412485295814    9.62500589572920
N         4.77061649899271    6.75344487365565   12.45596447553015
H         4.62195426186317    7.00613074051503   13.42408156502636
C         2.78005056235458    6.01117279401119   14.91769337163407
C         1.04121763996640    7.26999920111703   13.80395830292777
H         0.56434104562983    7.55734464111416   12.87571590304272
N         3.60049598921087    5.66794311820396   10.63657753636920
C         6.62082010596254    4.91643667060532    8.66220239380020
H         7.57139578232900    4.41191638162307    8.76606554230677
C        -0.70586219364060    5.60657347383707   10.31830744900370
H        -1.47890880473081    6.35046618827925   10.48238414106032
C        -0.07113690250572    5.53538843898146    9.03947969517476
C         5.74871563572099    7.50344922102066   11.77172608311052
C        -0.43934872371792    6.52302475844449    7.97322665956605
H        -1.52133630138926    6.57275046607477    7.85403637251621
H         0.01379930385459    6.25803810319969    7.02047556196993
H        -0.08476502652156    7.51536007240358    8.26055062389533
C         7.03255088696301    7.58546498540793   12.32069379481326
C         5.76033266983478    4.94336122131330    9.75005320605821
C         4.53645506004513    5.61424271980099    9.61583770684843
C         0.84107157479778    2.62948473025561   12.17642777503960
H         0.46212753099777    3.02502187176065   13.12610463815065
C         0.87113603339781    4.51951514145022    8.81347176186105
H         1.32117768822666    4.40682861495909    7.83306484754053
C         2.29950473823350    6.49977672919117   16.12619113161147
H         2.78553158452255    6.18464003685403   17.03947187324571
C         3.91765939607429    5.02760315274324   14.93146174297903
H         3.68714333990372    4.21286703565194   15.61711932553658
H         4.83897694111162    5.49534138451316   15.28043409801037
H         4.09131268412094    4.60694514433902   13.94499508740523
C        -0.38922109346535    4.68401045211633   11.32445240566151
H        -0.92062867663709    4.71616488446699   12.27043119753351
C         6.43275209437719    8.84425810129080    9.90296717796699
H         6.19055283520093    9.34652537105507    8.97930679135983
C         6.28700130651804    5.50475897399139    7.45637032128980
H         6.97930280639364    5.47072167863580    6.62837835763310
C         7.33565467685716    6.95922505142872   13.65026957640977
H         6.86087878192598    7.52931698966735   14.45087766250719
H         8.40716897221657    6.94887000208026   13.83275084806459
H         6.96039153075858    5.93794945107610   13.69940079462613
C         0.07564373650529    1.34405919804717   11.84492786828019
H         0.41984429494131    0.92864355700531   10.89988826832730
H        -0.99122903366248    1.54270458335512   11.76489997351599
H         0.23178546319035    0.60317840249043   12.62535640310467
C         1.21829457941194    7.35842888999653   16.18674813377679
H         0.86850291196983    7.72098848041453   17.14173035334936
C         7.71945968085064    8.88879072111609   10.40893344034325
H         8.49741404366262    9.41245552337840    9.87388967313322
C         2.15211561451027    6.42536102747168   13.73235590231049
C         4.18454035569558    6.16606379458377    8.38134894500702
H         3.22046516576459    6.65218396076622    8.29776786503360
C         0.57904735574056    3.66226433616291   11.10665124999893
C         5.05367327379724    6.11956917775358    7.31274552793437
H         4.77382148823084    6.56556035781881    6.36968554082314
C         8.00532175989414    8.28093329287179   11.61934608622384
H         9.00405732187873    8.34328498084854   12.02804399840415
C         2.33502732539622    2.35207088055315   12.34453172128751
H         2.87220791786761    3.29681008530205   12.41153066113552
H         2.73011039489470    1.78474005403771   11.50522556026238
H         2.51104330636179    1.78150420207820   13.25333298132873
C         0.57965627259464    7.73630461070307   15.01599462488735
H        -0.27378290223180    8.39693745642357   15.04998799851169
C         6.13763093376495    4.24877114873626   11.02312354775585
H         5.24864714196478    3.96328351688820   11.58246641014674
H         6.74422508575251    4.90277822820176   11.64706666858184
H         6.72017079811674    3.35537912104143   10.80630869204614

