127
CSD_code = HATNAU | q = 1 | S = 0 | Stoichiometry = C56H62IrN6O2(1+) | MND = 6
Ir        1.24570566048072    9.80082828049241    9.77781106308969
O        -0.29641620570401    8.32720198339206    6.35830426432795
O         2.53712701362242    9.33054533335374   13.56787477673551
N         0.83962223093965    9.38977757151220    7.87468760254568
N         1.39577931294206    9.68513093781356    6.68990520158726
N         1.62835811680949   10.02330385133674   11.71950137915779
N         1.35799468366318   10.94351059776274   12.65751581388055
N         2.86556908049235   11.04587531030436    9.12447750030917
N         0.34432408559016   11.74399315211934    9.71277917801594
C        -0.41736307574266    8.62576073642589   10.00992275294656
C        -1.10957011628049    8.27178214999467   11.16032770920493
H        -0.77067345388168    8.61873376896723   12.12633408548687
C        -2.24507852365419    7.47439613284664   11.10226126130380
H        -2.76004312332627    7.21730575556090   12.01610630065867
C        -2.72595542685166    7.00063086445293    9.89050283049946
H        -3.60656585692852    6.37812440326489    9.86363455309802
C        -2.07410391066369    7.33075409768505    8.71960123822305
H        -2.42979435931162    6.98139655343976    7.76201620966291
C        -0.93904275763947    8.13416209946004    8.78810259268895
C        -0.17731679714907    8.57606571133902    7.65886955958662
C         0.71595253019982    9.04221532901465    5.78764505018695
C         0.95711719152520    8.98774145548537    4.35659863201565
C        -0.12060638961613    9.07198485786161    3.46194075096040
C         0.12942579233314    8.91270978306034    2.10726166667625
H        -0.69226788264540    8.96164710695336    1.41025678706853
C         1.40559674446055    8.68712956983288    1.61873064277913
C         2.46070125056033    8.64167847835486    2.52161107454037
H         3.45627804349596    8.47228638266440    2.14801761896985
C         2.27022433754002    8.79792509087126    3.88197202087794
C        -1.53345640478253    9.34563196630807    3.92506497601379
H        -1.51034169417411    9.72259016622057    4.95176953728750
C        -2.34377333727034    8.04607642920050    3.90397736921899
H        -2.38992885629365    7.64580186970372    2.89426204080871
H        -3.35818576006937    8.23064643089426    4.24965840463723
H        -1.88570648290399    7.29948559195342    4.54849556920127
C        -2.21789210663892   10.41836796368513    3.07392313629755
H        -1.58225494861262   11.29621286163737    2.98010200436074
H        -3.15194873437694   10.71677162782643    3.54453864403643
H        -2.45045739843332   10.05062848808016    2.07898300362030
C         1.63988592061228    8.50484775660246    0.14154682556605
H         0.67327243334633    8.57114881386135   -0.36891398837230
C         2.23736502550193    7.12613244873778   -0.14807869245843
H         3.22198030280378    7.02559226823726    0.30119659236234
H         2.33559018103434    6.98133452777586   -1.22095738122601
H         1.59578925607308    6.34260382750355    0.24892774126090
C         2.54260921266019    9.61446518423637   -0.40258025717330
H         3.53218172046348    9.56550108427881    0.04449434218845
H         2.11550585247526   10.59150159783858   -0.18744950920666
H         2.64853947919564    9.51329253724614   -1.47970351136098
C         3.43753834938828    8.66710527630662    4.83549765582389
H         3.23206950056706    9.28136479008148    5.71509945033404
C         4.76335116703720    9.14627162555493    4.24473108819713
H         5.13646719033216    8.46143012071984    3.48793506393838
H         5.51084585142300    9.20249335971005    5.03286476451355
H         4.65218166937991   10.13372854241932    3.80343212789008
C         3.55120415799322    7.20204169880408    5.27253532819386
H         2.62322622638710    6.86244294343330    5.72890634596511
H         4.35656513003985    7.08289811149948    5.99370003596896
H         3.75602821844305    6.56654222489825    4.41382709683269
C         2.29544633669477    8.07747298031795   10.13369799790684
C         2.66836468927327    7.06056267254187    9.26486635838412
H         2.36609796327221    7.09331025408343    8.22810056249095
C         3.43230872872144    5.98468318116652    9.69730556585783
H         3.70316481952513    5.21040865589996    8.99467282681415
C         3.84809601393641    5.88715953475103   11.01707159597350
H         4.43609547814372    5.04177025787421   11.33847784371786
C         3.50722472805105    6.87718962267083   11.91633881286635
H         3.82073730859048    6.82967024252504   12.94829981376320
C         2.74542535050258    7.95421059002890   11.47072755527848
C         2.33538599611709    9.06001249524861   12.28271956197960
C         1.90202039613716   10.52226666389148   13.76115338668659
C         1.90542057139126   11.18247677238010   15.05199075323709
C         1.68551975121530   10.43593144501890   16.22220629066326
C         1.74607154907498   11.08832257028053   17.44334779215819
H         1.59590567305905   10.52397501345725   18.35006771586999
C         1.98440200757931   12.45019893643535   17.53890151494237
C         2.16582469322552   13.17150515928884   16.36704608691512
H         2.33680593275331   14.23306867140531   16.42998955398794
C         2.14168308559613   12.56843592456105   15.12177870729113
C         1.36676026085274    8.95834728236255   16.19046663533824
H         1.04781111333381    8.67828623179910   15.18277123904068
C         0.21752096774873    8.59514714140264   17.13436949487182
H        -0.10602759308626    7.57555592621459   16.93789000237178
H        -0.62876629290282    9.26140628786490   16.98226018192313
H         0.52128133346700    8.65120332304859   18.17550332546216
C         2.62231425252527    8.15396862760075   16.54100616365760
H         2.96698476253961    8.40830644923983   17.54031637891483
H         3.42291347701410    8.36778839112045   15.83677899681433
H         2.40554752138146    7.08886559828231   16.50995202234819
C         2.03442992374086   13.12738213523232   18.88397714800206
H         1.86489768964974   12.36911189506253   19.65565381369146
C         0.93000321279769   14.18024029577393   19.00123982927384
H         0.93239981727137   14.61244675241799   19.99865684373596
H        -0.04413599838455   13.73089804787216   18.82139179373522
H         1.07767479080142   14.98157338667060   18.28179766582627
C         3.41030729293803   13.75264559204669   19.12466962263360
H         4.19034557523099   12.99942432614242   19.03903873943360
H         3.45417084706096   14.18313736226625   20.12189785666703
H         3.61214509012050   14.54011882381795   18.40312162894935
C         2.35444673403440   13.41070982148393   13.88570718453632
H         2.67790075438487   12.76472116812143   13.06520821047046
C         3.42462190035208   14.48780001804065   14.07620213050158
H         3.06721982645571   15.29996095857607   14.70297537066461
H         3.69371412316145   14.91053197390134   13.11051297388406
H         4.31960701342587   14.06621676334439   14.52772931669876
C         1.01870208141363   14.04288346934552   13.48273427962183
H         0.30062081529299   13.26495606948422   13.23681567159724
H         1.15376073134069   14.68386943983291   12.61430912312217
H         0.62331372031986   14.64211506345061   14.29927829278788
C         4.01228540330884   10.58781509024920    8.64050067294774
H         4.27007315951015    9.57289046597977    8.90916605833778
C         4.84441628154750   11.34582232440422    7.83539728002090
H         5.76490268184210   10.92877427409587    7.46126066739064
C         4.46162905619340   12.64025257817391    7.51915219018984
H         5.07532024854553   13.25858397741791    6.88273070659093
C         3.27098171015453   13.12546378597197    8.03011989980453
H         2.93848229683532   14.12048694573471    7.78274951810293
C         2.48943693707826   12.30002783690538    8.83490679105149
C         1.19753452365366   12.72719894806344    9.39101611464345
C         0.87046394583861   14.06622310281764    9.59016792084001
H         1.57970202701840   14.84239348123524    9.35195806679539
C        -0.36393656215637   14.38764865690225   10.12632108437254
H        -0.63570803529461   15.41830001834919   10.29422056357814
C        -1.23902340532585   13.36149468765423   10.44816330176773
H        -2.20967399144313   13.56690913467871   10.86853868618000
C        -0.83759993689603   12.05552285264490   10.22589709592907
H        -1.48600247451904   11.22439209198649   10.46458522628517

