34
CSD_code = HATNIZ | q = 0 | S = 0 | Stoichiometry = C14H14N2O3Pd | MND = 4
Pd        8.66679270194447    4.47468720811237    9.27751261917097
O         7.46807332772767    1.47818470709466    7.01025365044945
O         9.90912234361130    2.97204036083153    9.03688565260661
O         7.58943307336055    3.07060039374132   10.13003719800843
N         9.81748144145334    5.88892315586016    8.58603464190835
N         7.50106071310253    5.98736623941839    9.67196369608127
C         8.77617883661313    1.96479541490875    7.13495466782857
C         9.13212940951536    1.91256335630083    8.65041351132569
C         7.71212092704328    1.97063548940091    9.32320306686276
C         6.76786714828031    2.04027599065758    8.08640256146302
C        11.00102454361191    5.72037734408879    7.98677339530920
C        11.82631414436472    6.77613325325138    7.66532384238140
C        11.41639477849899    8.07441783569408    7.97529317128044
C        10.20001293429459    8.25728614562071    8.59593584612828
C         9.40357052916048    7.14798384353313    8.89829418891969
C         8.09147325280666    7.20387826754993    9.51167503802940
C         7.42713865220543    8.37547647023480    9.88871787272699
C         6.16158819895592    8.29825375989661   10.42777283019177
C         5.57283320662383    7.04231674811380   10.58799773109446
C         6.27406939428470    5.92145189046196   10.19949129201643
H         9.43299254303108    1.36907552492617    6.50291529326601
H         8.81864455602266    3.04106211689635    6.82964772084979
H         9.65264806905227    0.96900335099708    8.88464490039786
H         7.50393374705552    1.05949808933613    9.90833545156400
H         5.82950493722844    1.50229550848479    8.21253814876916
H         6.56810711274496    3.12429362571720    7.89263442976779
H        11.27858105321656    4.69094666689719    7.78717482990579
H        12.77549076478481    6.59639275276641    7.18763248050310
H        12.04361454403562    8.91948363398736    7.73765728608598
H         9.86442617901274    9.24869363845329    8.85392755361923
H         7.90743651439775    9.33227471899677    9.76253431889974
H         5.63659227234305    9.19238813012471   10.72573618571668
H         4.58769934415369    6.94505752856779   11.01408056745007
H         5.87284880546335    4.92088683907716   10.32000435942001

