58
CSD_code = HATNIA | q = 0 | S = 0 | Stoichiometry = C17H32BrMnO5P2 | MND = 6
Br        1.64847483332410   -0.06325809993450    1.30505553640596
Mn        3.91070716476235    0.50410084796153    0.51010033140277
P         3.21263694955819    0.04462424640214   -1.70151340514172
P         3.09811984491470    2.70327334585070    0.50594524132671
C         1.04469302239944    2.37495027146623   -1.20380016025894
H         0.14687158932113    2.99934362606781   -1.25978288701995
H         0.82766533281900    1.51185941696046   -0.56620757444313
C         1.41707358171194    1.90747457720568   -2.60553318064939
H         0.61159261310121    1.27357688432808   -2.99301567616204
H         1.54013253730957    2.77395695038957   -3.26413200565992
O         2.65932864098448    1.23550090280230   -2.66471849746828
O         2.08726658343348    3.17164514710718   -0.67487963920619
C         5.58062135147353    0.86407437868015    0.08243353832151
O         6.72617038279934    0.98303768200489   -0.01760718529116
O         4.86301090279101   -2.21518124424540    0.98739945430919
C         4.42933270997646   -1.18089006187258    0.73232614417795
O         5.16512249557266    0.68962932946794    3.13496804217000
C         4.57175988574872    0.67787780912650    2.14826413241064
C         4.54821273135300   -0.45889271556037   -2.89938151804803
H         4.01554711285938   -0.82346311320669   -3.78413972589298
C         5.42429677122581   -1.57197874627620   -2.33935652301403
H         6.12688187028924   -1.90605995550235   -3.10151376555904
H         4.83726117050247   -2.42968201242606   -2.02092966019984
H         6.00285375641275   -1.21876878928105   -1.48658432786297
C         5.40605970679312    0.72971128290844   -3.32182668458889
H         6.00020174532365    1.09714411008549   -2.48952219483537
H         4.79123520457056    1.54211770908654   -3.69916400237121
H         6.09123760737779    0.42113944799473   -4.10990805104489
C         1.87367735038195   -1.25366867876603   -1.94931903810648
H         0.99156430911344   -0.77731147749683   -1.49426837895574
C         2.10815635804264   -2.56568433597971   -1.21062469197226
H         1.19883502715432   -3.16300285176638   -1.24712051715383
H         2.34734290089224   -2.40112663334123   -0.16328192082524
H         2.90808973749454   -3.14409935914783   -1.66660091062068
C         1.57702953447486   -1.52115829501251   -3.42404005848471
H         2.28965262521550   -2.23060111568506   -3.83960504586861
H         1.60500690553185   -0.61189048280644   -4.02201013189910
H         0.58433107022497   -1.95854273334609   -3.51732976939232
C         2.07559248020143    3.25019340634588    1.98380524401104
H         1.12317810905309    2.72196359786701    1.82316375903588
C         2.62381288052031    2.81639298693747    3.33635442310861
H         3.62341401313389    3.20563467125400    3.51585921299871
H         2.65092156656269    1.73186205629687    3.41736616621647
H         1.96866839839413    3.18434047424801    4.12439310796405
C         1.78825581082533    4.74827955879234    1.95325452119876
H         0.97876532169038    4.97106799622261    2.64647216801960
H         1.47815151064565    5.06861300218310    0.96001084487059
H         2.65736500683502    5.32650262053364    2.25892126102537
C         4.29446829634266    4.08786390255933    0.20051507844657
H         3.70022286344844    5.00760672230921    0.18861188517730
C         4.93485932390351    3.91408481361380   -1.17233348092040
H         5.56717764604520    4.77018377068541   -1.40218043649201
H         4.17362249055682    3.83069165029365   -1.94495575791814
H         5.55394156312270    3.02020674853281   -1.19858949148347
C         5.35002982393865    4.15675888030869    1.29606771484183
H         5.83335026964764    3.18849702728072    1.43042808571016
H         4.91836539774199    4.45799087182865    2.24768595897125
H         6.11838331016125    4.88118797766062    1.03027444271292

