100
CSD_code = HATRUS | q = 0 | S = 0 | Stoichiometry = C36H56N2O5W | MND = 6
W        14.18294293487383    5.64399054819810   16.98931240461199
O        14.84789548000541    6.09235713648394   18.73763783687692
O        13.19431146130841    6.35301171205716   15.47445555785094
O        13.23027782035198    4.31359086240646   17.41729725597280
O        15.66127458341011    5.32231124816440   16.21754929104078
O        17.42346187847003    9.34456344959094   15.62122942536260
N        12.61416804100891    7.28613079101237   18.00799353500058
N        15.06218105971090    8.07703806257556   16.78239226689264
C        14.25740987558206    5.51866251479269   19.79043003860691
C        14.95488982962428    4.62814287316121   20.64443597848248
C        16.29100704751643    4.04061455607176   20.19819084262407
C        16.04544401733351    3.24238368314023   18.90561665199687
H        15.68069359666218    3.89037127640930   18.08497446734658
H        15.29829914067719    2.47013772847429   19.08102486571932
H        16.96989566552132    2.76859570731762   18.58041157177457
C        17.31606160321265    5.15055721510143   19.93104686884789
H        17.40066295387796    5.80904536764154   20.79416515505266
H        17.01297295129750    5.72990087040003   19.06310746385568
H        18.29237271111989    4.71450962382946   19.72985685014850
C        16.89155400027780    3.08547541733022   21.23735474130576
H        16.23189448482232    2.24244463116085   21.42592831121097
H        17.09698745080117    3.60016600195678   22.17360237783434
H        17.83230436900303    2.69243852385154   20.85758387279319
C        14.35061614337779    4.24777994330917   21.82892907525568
H        14.88268019964696    3.58692189199355   22.49054849225818
C        13.08170791609191    4.67395895282076   22.21613682663742
C        12.52544270030066    4.23711621625490   23.56333705054449
C        13.46230581728697    4.72770232454884   24.67631528771629
H        13.53657846258262    5.81291568513283   24.65292373426439
H        14.46091759540721    4.31644530210169   24.56169753119260
H        13.07954898985501    4.42809123631267   25.64991435271011
C        12.43357632004080    2.70546413982520   23.60051877987011
H        13.41378912419318    2.24868506646052   23.50056345604078
H        11.80780449860250    2.34887720781139   22.78568677654530
H        11.99872202879304    2.37697374270556   24.54252531676994
C        11.12949099911372    4.80469311842863   23.83442296940377
H        10.41333573165606    4.44591296444784   23.09936682243414
H        11.14117078733027    5.89214078632329   23.82082227131855
H        10.79114170776105    4.48338883727957   24.81769861631451
C        12.37543687240337    5.45341148491829   21.31872809775358
H        11.35937948499632    5.75169115743511   21.52544834330450
C        12.93816630493371    5.86995581759673   20.11796403316162
C        12.01192128916635    6.56614099270440   19.14409069922071
H        11.37775916368485    5.78204016145711   18.70578072812941
H        11.35567523381806    7.25836668373419   19.70428566332888
C        11.50540496878275    7.64506275348047   17.09627763542216
H        10.68112435422922    8.10606156536997   17.66512419622371
H        11.87208145375813    8.37944662326619   16.37038225377810
C        11.01806475128310    6.44260797148496   16.33124717751719
C         9.71284624854378    5.98630161548468   16.41162559664864
H         9.03364635381232    6.49533535187374   17.07802035947689
C         9.29920326733513    4.91089060131623   15.64336182452650
C         7.88361656136212    4.35415637550750   15.68727866120325
C         7.00195222111236    5.07625467470502   16.71028230074184
H         6.89566987962872    6.12980952046153   16.46213214841616
H         7.41407157932994    4.98371633119810   17.71227964044120
H         6.00883170615015    4.63117607273226   16.71224450011833
C         7.93638867769868    2.86884184075117   16.07053391055587
H         8.44176310509963    2.74668328567712   17.02571951202697
H         8.47298342512735    2.28688946977686   15.32722326126374
H         6.92889071289487    2.46609781364456   16.15563501744132
C         7.23688082996387    4.51181409064717   14.30389598135931
H         7.79497623370132    3.97221202626237   13.54426425282812
H         7.20583727367152    5.56205964275676   14.02136034742352
H         6.21912915851436    4.12698446660322   14.31825714560088
C        10.23377415832049    4.33338941524554   14.78457550491487
H         9.90629611842058    3.50890527770926   14.17551564742356
C        11.54845269384509    4.75494786061429   14.66651876447542
C        12.52440526400231    4.09748608169307   13.69473405394719
C        11.84286063461880    3.06791804223816   12.78430121545902
H        11.03178598416813    3.51915863331538   12.21676542381149
H        11.45893326048170    2.22837058713862   13.35803743922100
H        12.57258696285303    2.68005278114448   12.07659947990780
C        13.15941962403812    5.17058833649745   12.79806092712510
H        13.73086314301139    5.87326098168602   13.40102709935315
H        12.38979895695610    5.71401101792611   12.25202668196643
H        13.83226434931696    4.70525731584397   12.08091442157665
C        13.62193755778403    3.37666004459486   14.49380939618587
H        13.17433107089743    2.70829211210237   15.22912964154457
H        14.26289140725435    4.09537441398646   15.03787313100601
H        14.24944371418149    2.79327332002510   13.82179857146126
C        11.96652593566179    5.82049079298923   15.49789231028731
C        13.30607705353200    8.49323525434120   18.47597723130668
H        13.92932120953244    8.21353396880278   19.33138798443836
H        12.58018805575928    9.25282538508499   18.81388907688958
C        14.19482990864791    9.10154598407947   17.37770761344462
H        13.56672266112509    9.53359924168953   16.59300052775077
H        14.76637893540540    9.92477590055859   17.82603488066137
C        15.27170081454803    8.24982840796106   15.33353718408777
H        14.30807431849431    8.34878881816905   14.82776310911482
H        15.75641928704034    7.32782519167482   14.98547013186359
C        16.16109801862428    9.45351955320453   15.00590625497327
H        16.35117805239339    9.50087445092629   13.93248096708690
H        15.67333029945660   10.39183707867381   15.32166716481262
C        17.28762671426492    9.21829652188313   17.01776853568186
H        16.89110515623083   10.16059922110831   17.43319930364273
H        18.29545441756126    9.06754700605459   17.40765469432329
C        16.39808439889214    8.03068174489614   17.40709450814375
H        16.85966607897702    7.09730722108701   17.05983870711646
H        16.29168069413815    7.99392642740917   18.49299413652923

