100
CSD_code = HATROM | q = 0 | S = 0 | Stoichiometry = C36H56MoN2O5 | MND = 6
Mo        1.64644979227308    5.49068250209862    7.59356762168361
O         1.06435326815829    5.74334067919798    5.88197635180645
O         2.60101569485185    6.13008427266313    9.04598666018706
O         2.57324818592170    4.15810911341945    7.29500643652137
O         0.18915663026924    5.23285179512920    8.32848751694056
O        -1.55395110608958    9.35727692205717    8.77034533585857
N         3.24651327460242    7.08663908052334    6.55871445499774
N         0.76641168512234    7.96071662068293    7.70438127881835
C         1.58801438533909    5.41404211047294    4.70154580423472
C         0.83505210028388    4.72191036112605    3.72414835109033
C        -0.53206620692305    4.14396074020590    4.07678914475925
C        -0.33018418373872    3.09389922570422    5.18120142035517
H         0.32182379457128    2.29768698934130    4.82675703079374
H        -1.28902199020236    2.66182523951348    5.46068175155210
H         0.12124731099705    3.53700805059893    6.07548769214842
C        -1.47730189694381    5.24195221645995    4.58261711678106
H        -1.15943468786071    5.58014722866397    5.56481075976494
H        -2.48892299845418    4.85061765081345    4.66819150036597
H        -1.49102968420233    6.08504021909752    3.89307249514081
C        -1.20679881363450    3.45525800492069    2.88397287272607
H        -1.37281190750602    4.15456278273042    2.06703420007137
H        -2.17458540541746    3.06926718628295    3.19723949817275
H        -0.61696396794143    2.61507743221757    2.52594202826931
C         1.41351163305973    4.51207905565830    2.48458552802271
H         0.84403549712869    3.99750587800168    1.73096789862981
C         2.70307036588480    4.92463414823208    2.15751718071863
C         3.24096364734907    4.65871850389354    0.75940525124717
C         2.33370740307001    5.34575721008551   -0.27090412043549
H         1.31785178544349    4.96500591523279   -0.21982566302154
H         2.71133864703394    5.17452939625850   -1.27694666764417
H         2.30516813380275    6.41836864960514   -0.09040139371949
C         3.25767345487631    3.14434875758617    0.50901325219273
H         3.87034514273840    2.64839851699447    1.25839828290651
H         3.67085632665522    2.93033376997762   -0.47462440390194
H         2.25709382369833    2.72472935487764    0.55677792423821
C         4.66449200979979    5.18897342920404    0.56706522827331
H         4.70738402399541    6.26307607865657    0.73233950841635
H         4.99027527624087    4.99199063969947   -0.45231463944766
H         5.35894415716190    4.69519698540900    1.24223213975435
C         3.44574113567247    5.53167928382545    3.15323230332216
H         4.46917712553117    5.82382408933834    2.97770780659048
C         2.91280715784991    5.76981203293938    4.41453158904824
C         3.85096062895796    6.31633031359781    5.46521441784000
H         4.37074561658112    5.46683431623703    5.92929962694103
H         4.60984629437581    6.94302210185308    4.96063061137256
C         4.32671265915417    7.49389101464530    7.47264402491064
H         5.16338143780406    7.92141080662352    6.89432379219537
H         3.94109418886605    8.27750948066002    8.13411739826752
C         4.82060973571789    6.37693207809594    8.35197025661092
C         6.15855186264939    6.02002391345564    8.39166099221998
H         6.83787324214531    6.50787557932814    7.70999254823567
C         6.60296156918061    5.06527850804648    9.29070022271432
C         8.05220867268765    4.60792544999143    9.36981209942633
C         8.93508989750277    5.27409296444998    8.31094356958737
H         8.57947150118950    5.04598514988558    7.30909843082804
H         9.95335816325738    4.90057526124872    8.40020906811685
H         8.96215639478733    6.35298411672043    8.44474948859554
C         8.11216954757568    3.08998333224471    9.15128392364128
H         7.57704352590168    2.55633588341825    9.93083053158712
H         9.14601353169856    2.75009567627177    9.15454713793522
H         7.66445437136579    2.83148469181924    8.19453937268678
C         8.61862670788331    4.95695378260151   10.75305536463283
H         8.56921537503950    6.03093017768354   10.91904887929696
H         9.65828112916997    4.64337445344210   10.82375573322894
H         8.05964687106629    4.46496784512688   11.54355723475182
C         5.66654845290528    4.52154576519626   10.16723902402940
H         6.01580197964491    3.79930267551511   10.88417003657045
C         4.31899120636815    4.84893321141507   10.16818656453427
C         3.34530799103036    4.23167379566512   11.16736029342414
C         4.06106080271252    3.43259156544690   12.26439173478150
H         4.55811698849913    2.55647173774140   11.85564304680861
H         3.32689770003355    3.08681616982841   12.98910474720995
H         4.78823558995981    4.04840093357308   12.78952618584156
C         2.53420297722361    5.34057169446524   11.85310416218476
H         3.19925610936128    6.04936398707204   12.34454889171666
H         1.87348507972720    4.90779720352665   12.60141830581518
H         1.92438271841062    5.87010130899507   11.12431364511856
C         2.39411581014718    3.28024377741226   10.42792738279113
H         1.74486086926983    3.82701100203484    9.73754449976080
H         1.76888248071823    2.74986068537658   11.14399881368651
H         2.96268322575498    2.55289032291864    9.85171932089822
C         3.88044546392899    5.77571313919851    9.20053002657735
C         2.56084545061414    8.26566818211944    6.02932454817717
H         1.94424559655274    7.94813552143765    5.18307549704961
H         3.29152484999812    9.00522396735213    5.65829305774984
C         1.66524507246069    8.93410259671772    7.08081736792727
H         2.28516155899883    9.39281755004345    7.85665109227203
H         1.11918557814034    9.74621858778128    6.58253247207670
C         0.54976471699381    8.19991516075152    9.13717316692675
H         1.51185219065564    8.27990995448322    9.64878092034428
H         0.02305967574041    7.32139224263897    9.52377298681354
C        -0.29630903647218    9.44994388559238    9.39937407047085
H        -0.49939768016026    9.55260485270925   10.46655678409956
H         0.22939568013516   10.35483268803963    9.04951499616732
C        -1.40827038396044    9.16087929907245    7.38242809145131
H        -0.97623148180026   10.06835021325230    6.92734905668046
H        -2.41662870396904    9.02538657789689    6.98829568837108
C        -0.55550354244891    7.92574205548615    7.06391656368911
H        -1.06185353168007    7.03512336284821    7.44749885210833
H        -0.43378440061502    7.82894930954694    5.98361905193178

