55
CSD_code = HATRID | q = 0 | S = 0 | Stoichiometry = C7H26B18CoNO2 | MND = 10
Co        1.17720729804655    0.62842055676677   11.71047666572024
C        -0.00977241624480    2.06232697143344   12.82439864390425
C         1.02266876301854    2.78064685809555   11.94550998361603
B        -0.84717662447739    0.90408237565079   12.01179571491228
B        -1.62598805922804    2.45513023454109   12.35273618641954
B        -0.39824735176590    3.68206530136263   12.34955847870041
B         1.04628401974171    2.22027425446863   10.40026646405945
B        -0.19868004656114    0.95455305572717   10.35764116919271
B        -1.74368711610182    1.73076095505857   10.72273256212867
B        -1.46468980818679    3.48014733163395   10.92939881041228
B         0.26127662521381    3.76707857039980   10.74591020291310
B        -0.54950494802847    2.55978582331505    9.70467092447590
C         3.18393157247662   -0.10696747092358   12.10632689006091
C         2.15789127185030   -0.81656853611635   12.99925142541298
B         2.72892645736597   -0.05645875549991   10.52787496580743
B         3.96677259508493   -1.21463093185011   11.03284845522514
B         3.61841848229724   -1.68594579425823   12.66675148962470
B         0.84723304502965   -1.35552983932644   12.16413150490903
B         1.16407248985140   -0.89044884035297   10.47588084509289
B         2.62906358342883   -1.73692676006426    9.96615502739009
B         3.18689828655959   -2.76738193645375   11.31138954388344
B         2.09057371076430   -2.51041383784766   12.66524324883690
B         1.44171575960164   -2.55652529086700   10.99994286236082
N         0.01939384610220   -0.37101120006423    9.53366158041813
O        -1.56607719453933   -0.11132817034197    7.28347808083247
O        -3.28873740962830   -1.04353207036724    8.38012631145120
C        -1.14926202504325   -1.23339950849328    9.36369177486921
C        -2.00966752241129   -0.71895996167948    8.22284220966758
C        -4.18427393489108   -0.58763361026841    7.37246809754514
H         0.21312793584240    1.97156277048845   13.88402206242132
H         1.91824700735366    3.15567233339358   12.43331567031630
H        -1.38864535402122    0.05669620867925   12.61532032015826
H        -2.47073723826546    2.46453315941117   13.17124186141004
H        -0.30529323145845    4.53272074807685   13.15538058777921
H         1.99588980693495    2.40031238774077    9.73853754845492
H        -2.76531956111103    1.30211297713786   10.31428629613143
H        -2.26977871503042    4.29187786785258   10.65040615759960
H         0.80878119648733    4.74257817570327   10.38337671407194
H        -0.69062986183282    2.73205652531810    8.54833580732210
H         3.77650780229872    0.68376797482521   12.55796681469801
H         2.08426362270631   -0.48885296033846   14.03260220770326
H         3.20508873173516    0.74092456944536    9.81406851659971
H         5.07466949796087   -0.99864955291584   10.70322797075788
H         4.41985659426428   -1.77045355248651   13.52231531914274
H        -0.14665633474848   -1.58237611244845   12.74270775539306
H         2.81270214716914   -2.01773389291407    8.83557325179688
H         3.74491962306766   -3.78964236986386   11.14408537966689
H         1.81714367203962   -3.25128082501899   13.53672684941404
H         0.76125536043227   -3.44971507331495   10.63607764134182
H         0.36371502768321   -0.15165821209101    8.59872166282329
H        -1.73333753122091   -1.26470822406140   10.28338776616844
H        -0.83692489476782   -2.25525617416426    9.11709913394986
H        -3.86641543687509   -0.94577412186968    6.39169327002390
H        -4.20637637402355    0.50336966419770    7.36151831363289
H        -5.16081684194826   -0.98779406445992    7.63004500137753

