79
CSD_code = HATTEB | q = 0 | S = 0 | Stoichiometry = C26H48Cl2P2Pd | MND = 4
Pd        0.31863155628582    1.78311660579192    3.29590232294886
Cl       -1.04095759664685    3.15056941288602    2.07845188138671
Cl       -1.21179700823577    1.50592957618984    4.96298935708240
P         1.80878990586319    1.93046524828939    1.64590213220990
P         1.69875923018231    0.44003712601645    4.41176289901682
C         3.10690658194307    0.01018740590325    3.26618667646769
C         3.37365123358950    1.09997533307253    2.22708399015089
C         1.16789583023936    1.00378820695835    0.17956420966692
C         2.20916290961362    0.55075055135783   -0.83984706001813
C         1.49988739067755   -0.07544478130097   -2.03972052970660
C         0.64213248588578   -1.25719802753673   -1.59407404039393
C        -0.37861390044422   -0.82165038992149   -0.54481536023384
C         0.32418130266980   -0.18327149432024    0.64961304428628
C         2.42999059326249    3.56272791402252    1.01788458863086
C         1.52438329671456    4.13902057297615   -0.07087083769730
C         1.94669597201632    5.55947246006145   -0.43776092648322
C         1.90799321614665    6.46207356379247    0.78879577538271
C         2.85188106953738    5.91774198284052    1.85340404553195
C         2.45660265246748    4.49523813016805    2.23478510593358
C         1.04879639647698   -1.17849277660601    5.00821659547799
C         2.10527683193857   -2.16482330462997    5.49937110867585
C         1.41275846590073   -3.40891086847146    6.05428072174281
C         0.52361168951736   -4.04876275731312    4.99093611690924
C        -0.51399307883149   -3.05154002742235    4.47991817658819
C         0.17581302089199   -1.80992993914258    3.92376288838261
C         2.47491454880839    1.26972760013826    5.88078281659236
C         1.58142895146464    1.13283018178128    7.11534218904083
C         2.09473444200436    1.99407988103472    8.26675329139604
C         2.17737363420179    3.45728552106131    7.84987793807597
C         3.11867552851947    3.59665258042993    6.66001370569580
C         2.62144737554175    2.74637419446418    5.49640697568014
H         2.80775049257567   -0.91112069135105    2.75835834691295
H         4.00979185838688   -0.20356469490548    3.84600031068500
H         3.98408400662201    1.89352936896890    2.66753419341247
H         3.92818004700911    0.69928753506557    1.37442097362446
H         0.47994418696040    1.71911274661596   -0.29083231530850
H         2.86841534176438   -0.19784973819677   -0.39299508667417
H         2.82359014367175    1.39443959371859   -1.16335580153082
H         2.23742744268996   -0.40646050888756   -2.77405930334070
H         0.86493357199247    0.67411053154749   -2.51655617035667
H         1.28717195644185   -2.03304590963892   -1.17345256684058
H         0.12734233869155   -1.68494166236177   -2.45607007251108
H        -0.96362518299094   -1.68238483860892   -0.21539669734775
H        -1.06694788679667   -0.09772953641374   -0.98494443669248
H        -0.42601352075045    0.16679216469072    1.38439321648604
H         0.96780830152981   -0.92623919432060    1.12932064397740
H         3.44878006156299    3.42435170103271    0.62772314125997
H         0.49700713627009    4.15007376195316    0.30241437930592
H         1.56700790349123    3.51696963395932   -0.96731158139992
H         1.27695933672854    5.94531829563488   -1.20820681024091
H         2.96025834603077    5.54737464450485   -0.84959831978122
H         0.89162562994870    6.48665447404597    1.18492290313660
H         2.19387628209289    7.48019040885800    0.51764322833101
H         2.82600364644446    6.55239656222904    2.74122284335828
H         3.87583039082531    5.92125807463363    1.46837695112138
H         3.16339734566723    4.11694898305780    2.97815792392538
H         1.45306420626082    4.50082523816040    2.68480625088999
H         0.38181430617854   -0.90419520349471    5.83557667877464
H         2.72775057248434   -1.70840536631974    6.27235477088918
H         2.75680312267975   -2.45742448283813    4.67238161292344
H         0.80134443020884   -3.12739168374788    6.91417960988651
H         2.16134259072752   -4.12729945991519    6.39551876500514
H         0.02275608277082   -4.92411524067840    5.40813627315800
H         1.14411847224298   -4.38666658108782    4.15682656131354
H        -1.17474859725905   -2.75942783955841    5.29792916360298
H        -1.12570626423709   -3.51602246741400    3.70427068679015
H         0.78811471130797   -2.09976641936441    3.06523078017939
H        -0.57059433321312   -1.07425765664847    3.59243004872642
H         3.46431777575387    0.83294416787852    6.07575585355000
H         1.54699637929911    0.09212316241245    7.44330931802483
H         0.56745413285942    1.44496437533725    6.84802234235522
H         3.08626787976788    1.64659818571714    8.57190500488127
H         1.42496154179205    1.88578925292772    9.12144144280278
H         2.53072474906358    4.06777662234370    8.68290867662474
H         1.18315501586484    3.80845793009315    7.56814978778626
H         4.12209524965094    3.27051640909627    6.94860727286698
H         3.18242056738374    4.64085604250420    6.34760551387448
H         1.63151597141034    3.12235202397909    5.16859748379575
H         3.31991773194092    2.83187760220902    4.65914640937205

