31
CSD_code = HATVOQ | q = 0 | S = 0 | Stoichiometry = C13H10Cl2N4OZn | MND = 5
Zn        0.34096149204134    1.26715275436637   10.08508250677822
Cl        1.65740476572700    2.73759833953441   11.06253126446868
Cl       -0.38646918407438   -0.65950174156531   10.89553804884448
O        -1.35395800014534    2.60911090634153   11.16737270954915
H        -1.02315505981991    2.97427428135954   12.00170676381919
N         1.27741658798868    0.71299631542423    8.18622872298574
N        -1.23914028944514    1.54053873105806    8.75305456923918
N        -2.09025474540664    0.62542268816838    6.91874737526951
N        -3.06412089772738    1.11799844974531    7.68569014108710
H        -4.02511559879003    1.01285646795184    7.40052759284720
C         2.53483032105623    0.38309173164964    7.94716303725891
H         3.23508706829603    0.58114182490603    8.74651583276608
C         2.94186548641543   -0.17976110102396    6.74661809076967
H         3.97801275910634   -0.43463739678648    6.59212033689661
C         1.99200870205538   -0.41060687438813    5.76234203124349
H         2.27342309050848   -0.85497710389950    4.81940320820238
C         0.67518710749077   -0.06294625400450    6.00824942043366
H        -0.10751683228782   -0.21874444074854    5.28394933507192
C         0.35997787387728    0.50291921896378    7.24006553537401
C        -0.99197555446090    0.88556706053666    7.59552511476255
C        -2.55345065758815    1.66815394267018    8.81400375037125
C        -3.32413029330868    2.26681003535748    9.87956765494634
C        -2.68851624739212    2.71622585838756   11.05414794607929
C        -3.45512745340804    3.27137471494917   12.07588168517458
H        -2.95884239831300    3.61083649246101   12.97416140238168
C        -4.82476842426839    3.38421021870794   11.95212902180509
H        -5.40169791149894    3.81453940475105   12.75589979382370
C        -5.45728031381923    2.94480354050801   10.79788248788131
H        -6.52757563408722    3.03210846877749   10.69856564583615
C        -4.71310247947817    2.39279491780765    9.77749817867884
H        -5.21687727924258    2.05744854803343    8.88383079535037

