56
CSD_code = HATWUU | q = 0 | S = 0 | Stoichiometry = C27H26OPRh | MND = 7
Rh        3.19288568889616    2.95325937886734    3.06388770736456
P         5.38447211879426    2.51752525857578    2.80763770103975
O         3.70539454585420    5.69624554770620    4.11331393247452
C         0.98337461762760    2.81011440581697    2.95946880306177
H         0.24553189144293    3.58039150858604    3.13917789160738
C         1.43283573297137    2.39663192031237    1.67456136643802
H         1.16426481414583    2.84206907514710    0.72911232678082
C         2.24753401161136    1.26772218171336    1.87391023871032
H         2.65327711860814    0.64138254831692    1.09064687146935
C         2.16312269127460    0.87901900879018    3.25327844760336
H         2.54433676988978   -0.04727264759745    3.65751679176208
C         1.35591985123477    1.80549416119595    3.91568652745145
H         1.00377370305904    1.74749836120515    4.93405115107941
C         5.80552332146442    0.71508173881194    2.73320489922348
H         5.12885440506130    0.24834887251716    2.00230883386939
C         5.60227454510686    0.04176865191313    4.05514281980527
H         5.54732855852675    0.65614409222636    4.94368248564560
C         5.48227541270285   -1.28990307499563    4.12443193552213
H         5.22705269839437   -1.75240309629660    5.06950839987578
C         5.70218216913214   -2.18530145695987    3.02370275003536
H         5.18469300373243   -3.13546677883157    3.06623012659843
C         6.62213697974386   -1.99659192042098    2.05105917908747
H         6.80619804376758   -2.80291581948165    1.35233837735774
C         7.51697093295061   -0.87618404540940    1.97885655930855
H         8.51161339173683   -1.08715655386706    1.60710502154739
C         7.21259278682060    0.36900140035086    2.36528903742014
H         7.97470665136131    1.13384787424285    2.40387368632100
C         6.23455745540150    3.13312122524723    1.28127551698282
H         7.32054237817933    3.19035107464881    1.43866440428634
C         5.93267348815896    2.31554990576153    0.06894396814966
H         5.08452347605355    1.64542995208738    0.09640879839755
C         6.69723702930555    2.42977158601339   -1.02738975604078
H         6.55118810393473    1.74412382186020   -1.85202807059067
C         7.68171934070597    3.45119749608767   -1.21921951611171
H         8.48880304906912    3.22626634837742   -1.90474784447423
C         7.55635486727848    4.72261402231183   -0.76515574726768
H         8.26800836219120    5.46371898997268   -1.10589198970246
C         6.42360336509208    5.20424240422045   -0.03435533712671
H         6.10811013942619    6.21679012629381   -0.24953789514478
C         5.72242286499831    4.46460232415037    0.83805958274956
H         4.76688850416511    4.79463726572692    1.23544045923889
C         6.56532260676796    3.11668202060642    4.10023738009152
H         7.47722668168284    2.50159758353310    4.10045121290659
C         6.93672817232651    4.55628720519957    3.93420498072198
H         6.35595493115816    5.16412489332375    3.25485373091477
C         7.97471456083424    5.06792477418770    4.60927954334536
H         8.30216676539661    6.07579476235701    4.38948541641504
C         8.68309998135543    4.38989023276033    5.65606837070686
H         9.70682993055709    4.69987168591989    5.82408746119207
C         8.11283404314175    3.54363400066581    6.54494031906911
H         8.70110454867693    3.20951154447469    7.39018681882652
C         6.71863274614951    3.20845670648404    6.56114371941968
H         6.27094263901050    3.07605864291716    7.53767619827717
C         5.95554403209543    3.09828896547465    5.46571349964190
H         4.87466078966196    2.99876694441858    5.53013094421685
C         3.50647869131191    4.63124290248212    3.71178996244745

