61
CSD_code = HATWIL | q = 0 | S = 0 | Stoichiometry = C28H18CdF2N10S2 | MND = 6
Cd        7.38268048900385    9.95270919474008    3.53023017260150
S         7.14808428748762    8.67873933242501    5.78245079405683
F         8.91843518163998   11.69496908530266    5.28061955792060
N         5.19626058757763   13.09022726775055    5.92673991647690
H         5.05440643648475   13.75792947974273    6.66900135829262
N         6.11379274596296   11.74285038846545    4.49882129726633
N         4.97680511198473    9.43647845761213    3.42699788164752
N         4.25966580191936   12.18678464504938    5.64893610674764
C         2.88506843232132    9.88135730775129    4.49799620656427
H         2.31812512179720   10.52944764586956    5.14621780197313
C         6.32972348939649   12.80394489281724    5.24821899016766
C         7.53327189159765   13.61716805211046    5.26864613719187
C         9.95068291321839   13.79694397347191    5.21710246882054
H        10.90929223275722   13.30265282347816    5.20595521304999
C         4.83741811582068   11.37684589590802    4.78372276779986
C         3.14579084012856    7.94592896689926    3.13000490431592
H         2.76489694948070    7.04194623751374    2.68180542554957
C         2.34786502627891    8.73139462460420    3.94816035917717
H         1.32569676328197    8.45060035740885    4.15568333058572
N         6.78653624529636   10.97410829223946    7.33308721717694
C         8.79853765911210   13.03316313592196    5.24949492785039
C         8.59988469501324   15.78071713373091    5.23334137771972
H         8.52052156728281   16.85673067001562    5.22835438725347
C         6.94834434609098   10.02825607755656    6.68534983610169
C         7.45382692530898   15.00908282740672    5.26909551367910
H         6.48326250646421   15.48228437299974    5.27333371278617
C         4.21109249745171   10.19856228605422    4.20829165681621
C         4.45603655766377    8.34144518786273    2.90102546099003
H         5.11585957442299    7.75973782899218    2.26891765953483
C         9.84708223482529   15.17700626548971    5.20315792652486
H        10.74117412611341   15.78028680192637    5.17453100256841
S         7.61430489225151    8.67486819091777    1.28056647029864
F         5.85239790875169   11.69174828177641    1.77548079704223
N         9.57458773825278   13.09488631551477    1.14345784979397
H         9.71949059424135   13.76617907891615    0.40501207972471
N         8.65218409706015   11.74119264298014    2.56209521829105
N         9.78733210262732    9.43420804809564    3.63370627391194
N        10.51085044154499   12.19128867385447    1.42189260021097
C        11.88099748142640    9.88000852958141    2.56696723986759
H        12.44940110572534   10.52909645936136    1.92103231849220
C         8.43854271740198   12.80514241271424    1.81618959541170
C         7.23386778096199   13.61657187947290    1.79350744930538
C         4.81593550720364   13.79164825955213    1.83885224544475
H         3.85827750905353   13.29547700056956    1.84691817241849
C         9.93007137957693   11.37744426411078    2.28147069177470
C        11.61683404196361    7.94176717733101    3.93032519783719
H        11.99639003196364    7.03651313600549    4.37709643088019
C        12.41657380245817    8.72849672262446    3.11516926458501
H        13.43886713468376    8.44743544455050    2.90860368428332
N         8.00011361051559   10.96491341904223   -0.27222602584768
C         5.96961800005348   13.03013098650902    1.80874929840537
C         6.16300564355339   15.77801673855249    1.82834095561374
H         6.24026506496733   16.85417952915576    1.83471989661164
C         7.82882114946868   10.02157395969815    0.37690452087180
C         7.31066609525906   15.00864500441839    1.79487928780090
H         8.28031713841343   15.48373927837972    1.79386178386584
C        10.55474694264336   10.19747863408466    2.85526632620415
C        10.30650068214394    8.33767958301752    4.15810255894819
H         9.64528863901158    7.75504199873620    4.78793193975011
C         4.91687621820045   15.17189116810809    1.85450030862976
H         4.02155319510734   15.77343767269484    1.88133420027882

