51
CSD_code = HAVBOW | q = 0 | S = 0 | Stoichiometry = C26H18N4O2Zn | MND = 4
Zn        5.97609137392773    3.75552020707578    2.67563002393357
O         5.68205841048744    5.43224176123790    3.33036441393286
O         7.60145036826699    3.30630096230550    1.98041232369739
N         4.51289175602282    3.79646550301494    1.40264872908142
N         2.84551367010230    4.63217484945230    0.21654177778350
H         2.16682953223549    5.28812549256319   -0.12874623350524
N         5.92691095348853    2.31859415711174    3.97821116709725
N         6.65299314398100    0.60522758901002    5.17116775082939
H         7.25608107570167   -0.12628223959319    5.50477904025977
C         4.82198726756575    6.31161940177098    2.94908605130265
C         4.83121717413899    7.57515713766830    3.59423976549093
H         5.57481304211405    7.71645031079438    4.36374398071139
C         3.95375183009958    8.57123811199410    3.26640241734212
H         3.99481794804049    9.52100787335353    3.77998149849812
C         3.00154193317076    8.36644475633392    2.26576644810845
H         2.30833368330165    9.15131684876109    2.00452635785627
C         2.95712118748969    7.15998996934462    1.61733439525657
H         2.21199333592326    7.02209733526887    0.84590534526070
C         3.84314246888132    6.11046180960918    1.92629311444339
C         3.75487319490440    4.87147392249650    1.21015955894049
C         3.03419129691511    3.35584973602462   -0.24812202177864
C         2.40740640594411    2.60580712622256   -1.22861899879970
H         1.59256197888093    3.00613301336083   -1.81221250526997
C         2.87592401645280    1.32007816583827   -1.42655958850480
H         2.41561311222017    0.70174384184102   -2.18226006058986
C         3.93154137477728    0.80165430612155   -0.67557037791935
H         4.26353464092383   -0.20693067805882   -0.87050212493228
C         4.55923177646357    1.54546520993277    0.30407247371648
H         5.38134459975836    1.15612390921007    0.88422837314263
C         4.09851649643540    2.83754429344876    0.51501770168911
C         8.38492169511842    2.33938623229481    2.31114200464972
C         9.60440304583631    2.19767313024596    1.59986117868489
H         9.79639209547288    2.92529372933447    0.82609657338500
C        10.49755673206951    1.19811587159195    1.86947266632450
H        11.41605387212910    1.12454894315296    1.30514418396911
C        10.22638021522861    0.26683055716441    2.87409833478313
H        10.92802860868523   -0.52522068430976    3.08657519208997
C         9.06145999280382    0.36922373876841    3.58853654531102
H         8.86830047590569   -0.36482938826732    4.35875674522981
C         8.11908237708811    1.38589693349712    3.34286235317845
C         6.92452535259993    1.45352351221393    4.13304189955147
C         5.43596224935963    0.94509829768193    5.70409137772523
C         4.68675553068330    0.43212528638769    6.74925582729601
H         5.03427155754614   -0.40382244513390    7.33682721038644
C         3.47318364633370    1.04274108772339    7.00630596602943
H         2.85808223290013    0.67446243397877    7.81335429188221
C         3.02383155585115    2.12597076749758    6.25007389238430
H         2.07059116104768    2.57088849050977    6.49262320800858
C         3.76708596188571    2.64058207412345    5.20624173261026
H         3.43206754528904    3.48290730153664    4.62129532086883
C         4.98698504754038    2.03660944649544    4.93552269857706

