79
CSD_code = HAVCIS | q = 0 | S = 0 | Stoichiometry = C36H33HgI2N5O2 | MND = 5
Hg       22.08555195839024    4.65915032078945    3.67538108837832
I        20.11595051338283    6.25781946589544    4.28341002179829
I        23.73011487972473    2.62647830673038    3.85749198403166
O        25.49968308249812    6.01426291126616   -2.30432750252881
O        23.97543012314353    6.41499436659010    3.88118477582726
N        20.98049074595108    3.82831837737424    1.41163628593070
N        23.13800044179522    5.51483323237898    1.46700489324072
N        24.24284027655321    6.22850703686459    1.60778621561755
N        27.35602842669546    1.70457963066852   -1.55005530626291
H        27.37235553802903    0.92682364689098   -0.90976078173685
N        23.08765843756855    9.95331750033727   -3.43831086474764
H        22.83690278392837   10.86969268368879   -3.10223647020314
C        19.87670002800443    3.05734340890124    1.36489147909928
C        19.33092451082328    2.55316976824872    2.56407877158836
H        19.82187238061775    2.78922055661763    3.49945467335047
C        18.20554075851685    1.77955790339292    2.54523614620244
H        17.79389986501720    1.40240958696262    3.46905139482629
C        17.57298829953267    1.46688618150393    1.33090675870119
H        16.68282441314792    0.85614291204771    1.33982900701737
C        18.08182741326929    1.92813249429858    0.14871318275976
H        17.60653709914330    1.68847846999212   -0.79171254667282
C        19.24057392898936    2.72747164306480    0.13361739425598
C        19.81778783488748    3.22271771917781   -1.05349537367531
H        19.35982120078562    2.98820800974805   -2.00415042134748
C        20.94699547930589    3.98528623248445   -0.98099342198230
H        21.42093511684283    4.37904621246353   -1.86720906043641
C        21.50318560505555    4.27897561290924    0.28607056088483
C        22.70016625241831    5.09505712093106    0.34374754046557
H        23.18117836758846    5.31907164914820   -0.60450552965552
C        25.24217618961968    6.53426501249355    0.56323799428656
C        26.28553312272276    7.25488983798980    1.37751392044734
C        27.47470257445730    7.81469305526348    0.96019517260741
H        27.76978573007601    7.77709792417717   -0.07751502745970
C        28.27891093664631    8.42360375836485    1.91311507217825
H        29.21494585033051    8.86798711735761    1.60918000947924
C        27.90452290302181    8.47094013176121    3.25044072948946
H        28.55356669659082    8.95073743958505    3.96713681126805
C        26.71228699098654    7.90904064102410    3.67334144673109
H        26.40538826966371    7.93329147530333    4.70717441664614
C        25.90947236376264    7.30335127639091    2.71956305978909
C        24.62377521760745    6.62555295460534    2.87467179772964
C        25.78634196205262    5.25260548814727   -0.01712926575435
C        26.19372831978993    4.21794427503941    0.82173751045611
H        26.10983496218544    4.35015445887884    1.89103815327566
C        26.68928021033766    3.02896690767473    0.33814114825571
C        26.80612511896865    2.85640842033401   -1.06022509836796
C        26.39929415145705    3.88815797776545   -1.90328862344509
H        26.45837691439423    3.79458855819916   -2.97441185850909
C        25.89224998723688    5.07387107798934   -1.38914570377567
C        24.84795486073270    7.12709494336700   -1.85545609424505
C        24.34476625579236    7.97846416669791   -2.83026522108087
H        24.51345408914962    7.70159305280660   -3.85708211952740
C        23.64778999652555    9.13483615040476   -2.49008225590323
C        23.45547014409521    9.43271034167556   -1.12178934619543
C        23.97345406986897    8.57946628574816   -0.17235094534094
H        23.83353703228332    8.80914934050804    0.87514817173857
C        24.67014979624618    7.42301899138924   -0.50969129220605
C        27.09497081544773    1.93858010148593    1.28336753759453
H        26.92356110592212    2.24847031084943    2.30987765904223
H        28.15009104214183    1.69232537161147    1.16413522139762
H        26.50518368142494    1.03700039090539    1.11385365553871
C        27.34690587845970    1.34189149552143   -2.94725109712173
H        27.88403035078802    2.11127807898316   -3.51192282746460
H        26.31905704270451    1.28706589441870   -3.33919890046865
C        28.03985573825164    0.00042820615215   -3.13405760144323
H        29.05627951643072    0.04604116384985   -2.75070119026419
H        28.07762846459547   -0.25835741537190   -4.18862704091751
H        27.50267352584256   -0.78524218400166   -2.60648832053129
C        23.42400899635645    9.90944814247537   -4.84105024051465
H        23.34920349564312    8.87699793132900   -5.18928168796486
H        22.66798889007768   10.49347080719070   -5.37301163477050
C        24.81502734940003   10.46790013586711   -5.14814444065993
H        24.88152599110930   11.50975042590938   -4.84164705403680
H        25.01707988097727   10.40672336459822   -6.21397251940266
H        25.57512707104978    9.90310858105367   -4.61386590726520
C        22.69888653412004   10.65873417725079   -0.70099920393771
H        21.68895301179048   10.65099644616538   -1.11103740900543
H        23.20182444079956   11.56711935073616   -1.03801435760862
H        22.62469669845091   10.69963520067189    0.38219990250883

