113
CSD_code = HAVDIS | q = 0 | S = 0 | Stoichiometry = C53H52ClN2O4Rh | MND = 6
Rh        1.82447642384355    4.42160033173253    0.35861220252958
Cl        3.96927635763934    3.70926650578204   -0.00888419817215
O         4.08540978757317    7.86279277450433   -6.43908409738168
O         5.45896403268195    3.87844297614235   -4.22547528162046
O         0.30299782516353    8.48490144812018    4.51111690071143
O         1.50974023832921    3.83681250320677    5.27164738647740
N         2.45900444503166    6.97447873303062   -1.15822320619609
N         3.42676731913590    6.94739930283292    0.75682732864309
C         2.57282320976294    6.25264342364188   -0.02273313750737
C         3.22258785167035    8.10978119623331   -1.08200016808725
C         3.82715473187610    8.09338285445051    0.12675785960799
C         1.78973539899088    6.55914456269179   -2.37182747780436
C         2.81394452421414    6.30194307043936   -3.44878465246065
C         2.99200035015736    7.18117442436056   -4.49673351713458
C         3.98862767178824    6.93742621354818   -5.44632102820108
C         4.79442434714970    5.81952080601035   -5.32185150674940
C         4.61452443821221    4.93362122570662   -4.25382324359085
C         3.61614758985304    5.17498075855574   -3.32108549376309
C         5.07930349399073    7.69513590917929   -7.42677075621089
C         5.03788539252887    8.86032166201210   -8.38057818434929
C         4.64263134813295   10.11736380564862   -7.94434435116023
C         4.62792745884358   11.18834694814727   -8.82004436108078
C         5.01698007243339   11.01587674637245  -10.13723824716947
C         5.41636841809113    9.76514367446979  -10.57683475732434
C         5.42326066804681    8.69178253333841   -9.70403589260897
C         5.33211043968450    2.95331580919978   -3.15830631114078
C         6.41580953185059    1.91447431523744   -3.24173850615496
C         7.05412684959362    1.62418100424122   -4.43850034569048
C         8.03389074996945    0.64740393591404   -4.48744301735516
C         8.37638027148048   -0.05266429505319   -3.34399225852073
C         7.73847981056744    0.23123536196673   -2.14735576167953
C         6.76566526751376    1.21224621070113   -2.09455976121199
C         3.92588233769193    6.48492715407409    2.02893448398191
C         2.82253934879227    6.35443816387720    3.04651755210033
C         2.03583078669753    7.45470356575397    3.35038525263006
C         1.02651089799450    7.35323566999665    4.30306581371613
C         0.82290622079789    6.15106145626129    4.97481462075918
C         1.61649502736921    5.05064950254542    4.66899549903617
C         2.60368465554546    5.14816318367533    3.68859277516130
C        -0.74634455272386    8.47093686816926    5.45624806072308
C        -1.42437805767533    9.81600634176224    5.44570647368178
C        -1.65828363643594   10.46599879731364    4.24113393981762
C        -2.29227463306184   11.69497743913992    4.22261409888622
C        -2.70687027227661   12.28138273708464    5.40639673289053
C        -2.47938596420741   11.63599892696918    6.60960035699266
C        -1.83686720308314   10.41033066812667    6.62988071332555
C         0.51634939991499    3.63126517883223    6.24735510907028
C         0.54868226220317    2.20198526115859    6.72834662729154
C         1.38530944126508    1.25773665632753    6.15371997141017
C         1.38203416316873   -0.04801860238140    6.61443523807287
C         0.54443405223447   -0.42042335355267    7.65036739441242
C        -0.29334359531881    0.51981906330786    8.22770801621860
C        -0.29121464200088    1.82391051647534    7.76934340076020
C         1.35763720190413    2.49168742654679    1.19980920332396
C         0.97315468888823    2.50060409843783   -0.12661531719103
C        -0.47246113698348    2.58971441240092   -0.56509223538338
C        -0.92912874467432    4.04134453019276   -0.80846032928184
C        -0.16774689357501    5.05648404004056    0.01664376340289
C         0.04141169754085    4.94961002050632    1.39263429928950
C        -0.54408374399818    3.83012328899598    2.22754151025737
C         0.39552785632138    2.61617625439142    2.35585028470435
H         3.28016547298056    8.81229103625718   -1.88708755103744
H         4.50321578937306    8.79049803676738    0.57798359666792
H         1.25659934823228    5.62926554128746   -2.14743089368089
H         1.08158833694938    7.33350825039587   -2.68270674394021
H         2.37462512665345    8.05830160561064   -4.61165092399413
H         5.57840781798292    5.59260082782660   -6.02510672322786
H         3.45326925235327    4.51993331302129   -2.47976946243363
H         6.07480425339100    7.65106992961415   -6.95525161776644
H         4.91931247573288    6.75595929103623   -7.97496558716348
H         4.33870220519098   10.24515831823293   -6.91715883479626
H         4.31427164478659   12.16180517576917   -8.47217720499146
H         5.00776704823571   11.85253504012911  -10.82017495106024
H         5.71908081020710    9.62375255878874  -11.60403973121473
H         5.73104639857508    7.71584156897909  -10.05200330588427
H         5.38770343933886    3.46446378437699   -2.18947862388394
H         4.35175174071841    2.45460583175569   -3.21670275871467
H         6.78415661971314    2.17336520763877   -5.32717012107433
H         8.52984156669665    0.43064917686570   -5.42282166984444
H         9.13989677242024   -0.81613011801340   -3.38365403240285
H         8.00443958271120   -0.31129480443094   -1.25170484027814
H         6.26891751345858    1.44291677064424   -1.16352899252931
H         4.40370445776888    5.51131675230500    1.87657448566424
H         4.67599546050817    7.20025253985905    2.37838143061374
H         2.18274257140304    8.40243148099447    2.85675385308229
H         0.05786112443662    6.07676502930792    5.72947289046253
H         3.20660406000747    4.28177503200027    3.46590418646470
H        -1.48154302204233    7.69302750056346    5.19175569440605
H        -0.35700387714113    8.25351046921382    6.46084271108101
H        -1.32959196659267   10.00543384816975    3.32222579098188
H        -2.46603248282663   12.19546420760133    3.28141090169545
H        -3.20478411274386   13.23951560375200    5.39182334899870
H        -2.79852892685555   12.08995292544305    7.53616730375866
H        -1.65572700119567    9.91312383634120    7.57234467747733
H         0.67550791498480    4.30526284122771    7.10353540568905
H        -0.48108175843685    3.84262210658969    5.82832666053151
H         2.04118378328441    1.54966399231608    5.34948556523777
H         2.03787482060951   -0.77604966300693    6.16030664454617
H         0.54268619574952   -1.43907267080513    8.00878056457577
H        -0.94907663579561    0.23643710720718    9.03785283371679
H        -0.94482146960083    2.55693369772696    8.22148371753322
H         2.30173832450907    2.01128707029407    1.45680971271727
H         1.65245204886656    2.06236113619108   -0.86014595127254
H        -0.60115547382789    2.01980404901027   -1.48780341864208
H        -1.09964836308567    2.11937786412941    0.19422474600076
H        -0.79177593603779    4.28531895117812   -1.86575825380274
H        -2.00096058988720    4.13584311154198   -0.59791282798146
H        -0.22298299155569    6.06508057833613   -0.39198846406419
H         0.20285077307221    5.87733071087745    1.93858682151514
H        -0.75994640514890    4.21556532470841    3.22627954486818
H        -1.49757815894125    3.52753603037323    1.78859286720119
H        -0.19173500176064    1.69365471669098    2.43659640330796
H         0.97497614416629    2.70847147866068    3.27382565920033

