69
CSD_code = HAVFUH | q = 0 | S = 0 | Stoichiometry = C36H26N2O3PRe | MND = 6
Re        2.08731367980808    4.18220090299455    3.96083357461041
P         2.83524775754812    3.34157490881491    6.19721868953692
C         2.72027300421869    6.01524769451621    4.16896033203197
N         1.19670042271249    2.20294513056459    3.67892293886049
C        -0.07515594945950    1.77980120078038    4.01704728263360
C         1.61042168162345    2.29750796452640    7.04794715036158
N         0.25518459687574    4.61866003144862    5.03817208529579
C        -3.49030762493180    2.51150272994469    4.32419833177518
H        -3.37841219860892    3.41254144902398    3.73873538863913
C         4.32910618911840    2.29107345574887    6.26615842090564
C         1.74488928462541    1.22710268027868    2.96321971522818
H         2.72498657991132    1.32682373562810    2.52573503249657
C         0.51948421645093    2.89747098774972    7.67423362453303
H         0.42913554928139    3.97493276365994    7.68757715177408
C         4.12598396654167    5.62327424247979    6.96478705168972
H         4.44838824078103    5.60622671291554    5.93085955434933
C         3.28223839761264    4.61492940885157    7.42501063392376
C         0.01925405809503    5.75564016249201    5.68397546403844
H         0.75173317821782    6.54497463758824    5.72478939383150
C        -4.73853818128185    1.94164147990065    4.49519322110068
H        -5.60514249286381    2.40573855433919    4.04770987468205
O         4.77703608651969    3.47165997280514    2.59489155668441
C        -0.27521775888433    0.47555815087617    3.48366978232346
H        -1.17342255274082   -0.10326695425475    3.57118693324215
C         4.55518071182977    6.62233002087696    7.81676279950838
H         5.20397022324054    7.40245647641791    7.44794205626892
C        -0.87455863499246    3.83738597766746    5.17854991022149
C         5.65931155614509    0.56338740573101    5.24263777442513
H         5.82286749115204   -0.13014151538136    4.43105975480733
C         3.76918284796077    3.71481417386410    3.09195019692044
C         1.69780014561543    0.90986446338296    7.00905877820409
H         2.52550890113291    0.43210968450235    6.50392808845076
C         0.87832625273071    0.13160421435403    2.82740783980209
H         1.09064389767147   -0.77747880974282    2.29880949857124
C         4.55205579274252    1.39070301702631    5.22864161563823
H         3.84858866855613    1.34231424014703    4.41002391871361
C        -0.44462792357885    2.12010118300378    8.28752312157150
H        -1.28439925954862    2.59439106568416    8.77357095089295
C        -1.03591751433171    2.53630724467701    4.69244460950905
C         2.90432234098982    4.59874278866968    8.76270031524300
H         2.28620412750919    3.80123937735659    9.14958838455622
C         6.55873919986750    0.63156461395596    6.29359151719588
H         7.42913178532686   -0.00741586146828    6.30370643102491
C        -2.36321964294249    1.92018892201980    4.88806374883784
C        -3.76165143606824    0.18869679124066    5.80325840633198
H        -3.86485464068233   -0.71695414665303    6.38333072278125
C         3.33302569663393    5.60483377119959    9.61185153926057
H         3.03019086657205    5.59061575321449   10.64881686851352
C        -0.33735912419074    0.73913691962574    8.27145139959237
H        -1.08919758692988    0.13374034643135    8.75626424167937
C        -1.82748623868597    4.55414216551253    5.95482083375197
H        -2.79284594479603    4.19004884118690    6.24775801513281
C        -1.25541803846360    5.76032665726685    6.27238901915491
H        -1.67853848375241    6.55877573998432    6.85103658520459
C         5.23149876093720    2.34966134350273    7.32277386129678
H         5.07373224778459    3.04214129576547    8.13685729013760
C        -2.51009721308706    0.74910502229645    5.62412353100852
H        -1.63856765768503    0.29082101712597    6.06744372261102
C        -4.87851188071316    0.78164624046557    5.23870424557077
H        -5.85448631263995    0.34018756593996    5.37613163616627
C         0.72968905684675    0.13717261207710    7.62452878446396
H         0.80869343513735   -0.94006778695142    7.59616871568704
C         6.34096304814421    1.52324613506795    7.33072801168386
H         7.04051099016173    1.57819627553222    8.15196734192048
C         4.14815094485905    6.62053209527743    9.14161333552780
H         4.47248278122330    7.40500870281909    9.80894604400746
O         0.74829068983369    4.95971618156896    1.28120090970959
O         3.05263979101207    7.11513089599131    4.20140701670700
C         1.25845515031094    4.68470887808182    2.26833342718716

