91
CSD_code = HAVGIW | q = 0 | S = 0 | Stoichiometry = C48H35N3O3PRe | MND = 6
Re        5.21883716289066    1.91706847535666    5.34177217194697
P         3.46279290217141    3.37381623905468    4.30423215203811
O         2.96257009306117    0.11410572566177    6.46772644754973
O         5.33419769399822    3.60641152000778    7.93751908988091
O         7.45787589415943    0.03435911584984    6.35496083154248
N         5.21625639664401    0.87918322612824    3.43893356839409
N         6.71899516180647    3.18233563976623    4.39876304904736
N         8.31656778188053    3.47323277914747   -3.23840901697445
C         4.61051987394274   -0.27926855280696    3.20507951517042
H         4.07101653627713   -0.79938627589886    3.97876053676040
C         4.78014535093353   -0.69256610947876    1.87430167221715
H         4.39720561427360   -1.59712626517305    1.44300032445665
C         5.52819173460586    0.28179047381927    1.26320079072368
H         5.87445903532132    0.30590327790311    0.24804178347020
C         5.80165266153389    1.27052279169145    2.25010593911673
C         6.59231349917010    2.40814019458026    2.05798044784895
C         7.02750784315946    3.28304209618130    3.05628175270991
C         7.91917076739721    4.37623294813261    2.87510000546723
H         8.30966843319711    4.71415728417598    1.93539628938759
C         8.17002770925539    4.89305944031370    4.12041766699234
H         8.81011446960435    5.71549024355254    4.37545185224565
C         7.41101748587491    4.12995661481947    5.02123248173278
H         7.36375209140647    4.25236691415647    6.09053245697806
C         7.04610471213143    2.67571093213913    0.68121674674317
C         6.12325344874476    2.94714249649462   -0.32517749935927
H         5.06952487776824    2.96887099439405   -0.08977343373575
C         6.53690451800980    3.22260307165606   -1.61094728534907
H         5.80942643386991    3.45598933053724   -2.37458886264228
C         7.89415184460440    3.20445316101831   -1.93713929192452
C         8.81941627995855    2.90862739171630   -0.93399341683872
H         9.87123014328468    2.87027557181646   -1.17608394514008
C         8.39993275245256    2.66034558663905    0.35536524937354
H         9.12539706234232    2.42005259541064    1.11857790310993
C         7.53490009702791    3.07401141288587   -4.33036384047124
C         6.85538461548444    1.85650148796779   -4.30820891352408
H         6.94187026560694    1.21566567582030   -3.44286614339051
C         6.08419965501951    1.47056302704033   -5.38720145057249
H         5.56484098043057    0.52393704355878   -5.35834404580492
C         5.98467571252269    2.28262060601976   -6.50505534791055
H         5.38389980491844    1.97599398811315   -7.34768311590456
C         6.66301394771857    3.49007426280811   -6.53463601038205
H         6.58857666820054    4.13122153957510   -7.40061073948489
C         7.42962483927578    3.88885095313572   -5.45697553705076
H         7.95123773287627    4.83458662338587   -5.47869297893125
C        10.34755428090509    3.77617459311596   -4.52937566443395
H        10.04475183509049    2.96821448985379   -5.17930254007407
C        11.53805938813846    4.44080430683169   -4.75078614709722
H        12.16483200181165    4.14711126199073   -5.57983092002120
C        11.93446159573434    5.46921084293832   -3.91162725427527
H        12.86738177161007    5.98340932887387   -4.08541061611871
C        11.12524331418918    5.83330005156721   -2.84799390397879
H        11.42361303709881    6.63780514363910   -2.19195026543117
C         9.92869200957945    5.18066992921472   -2.62364458769759
H         9.29393044632773    5.47359491700321   -1.79994191139464
C         9.52827902060080    4.14071124941887   -3.46179814632779
C         3.80724997971403    0.77526701707058    6.05464441188616
C         5.28346085476641    2.97701386518077    6.97653368519182
C         6.63061082027545    0.73458780752256    5.98662916680242
C         4.09406893566347    4.70887454677321    3.23936297306598
C         3.88501266620150    4.82409057113341    1.87197781942327
H         3.23016117641936    4.13553908915610    1.35835932165871
C         4.50029457334216    5.84324199150150    1.16459463812979
H         4.34244445132684    5.92314545319199    0.09876841088361
C         5.31415466119115    6.75414886584355    1.81445413090502
H         5.79933594052548    7.53974178371244    1.25461012657692
C         5.49798332438389    6.66370230552895    3.18542549878230
H         6.11946204631895    7.38189308609799    3.69888470733168
C         4.89355258781953    5.64562298155625    3.89408582524862
H         5.03542086523195    5.56240021164094    4.96487903808620
C         2.53626853004554    1.88492921706555    2.12939796068108
H         3.53645686212572    1.98630558306500    1.73504194037202
C         1.60529403318535    1.13826527736301    1.43194926245880
H         1.88527202569183    0.67647313459510    0.49636826757709
C         0.32764150730282    0.97204417601535    1.93861431074258
H        -0.39786685319578    0.38366321940538    1.39684063569616
C        -0.01277345022488    1.55361535341806    3.14850339924280
H        -1.00460329977043    1.41787641513605    3.55398998895551
C         0.91398749797048    2.30375335773366    3.84904576246272
H         0.63996941858603    2.74375862833059    4.79702835419401
C         2.19585412806464    2.48929234046149    3.33764366942550
C         2.42108172949908    4.34032802013867    5.45069529461966
C         2.20434135244982    3.87795395958270    6.74446807818648
H         2.67587896359578    2.95883653406904    7.06819822831071
C         1.39052422889189    4.58654517163654    7.61023695161399
H         1.23067149433865    4.22248834199979    8.61400119179034
C         0.78658799549663    5.75977236648948    7.18984264824717
H         0.15576674230834    6.31627751576932    7.86685475815897
C         0.99056977545906    6.21879381289736    5.89831592068962
H         0.51564353987680    7.13052123721230    5.56661890339662
C         1.80084376964827    5.51299185750796    5.02855194765242
H         1.95495583960116    5.87291324063370    4.02054487884358

