45
CSD_code = HAVMUN | q = 0 | S = 0 | Stoichiometry = C23H15O5ReSi | MND = 6
Re        9.47150548627129    2.19277387434309    2.09334218448040
Si       11.36544205138480    2.33702177252923    3.91740216733334
O        10.19812123823211   -0.83781619639382    1.96074196316667
O        11.73831929370118    2.87482094326573    0.06440561183699
O         7.22037981184208    1.94096422655751   -0.05453596148818
O         9.09249345949832    5.26034491603131    2.50965675508148
O         7.56002490745069    1.89352288548415    4.53769889233730
C         9.90701396364691    0.26462435675445    2.00354939356226
C        10.89414951220004    2.59166603411795    0.77603740028545
C         8.04086688082257    2.03733715255656    0.72743159733357
C         9.21627970479186    4.14094056508029    2.33698925044726
C         8.23973387584092    1.94832220117895    3.62345579393040
C        13.13517504512107    2.24564650897098    3.19491718268899
C        13.46693730476806    1.27829125357593    2.25014215984833
H        12.70332316641423    0.59854083360864    1.89251152263263
C        14.75429223414730    1.16558326482276    1.76001603191318
H        14.98750427986888    0.40760495749508    1.02604472730116
C        15.74232261060788    2.02529259521939    2.20937560175539
H        16.74868315938204    1.94363261138478    1.82533798381411
C        15.43296590510064    2.98789064810887    3.15468806140700
H        16.19972826823379    3.65949339581206    3.51368506951634
C        14.14283854493691    3.09303560285802    3.64303775729453
H        13.91238645360704    3.84555475786555    4.38302881439284
C        11.38957184768530    0.94644969244239    5.23057503221221
C        12.45399394579701    0.91896734315484    6.12856520113416
H        13.22388763628867    1.67259981957004    6.05269517535646
C        12.53749097620176   -0.05224047827771    7.10787793373448
H        13.37136282970142   -0.05405150445524    7.79493878389752
C        11.55433487149478   -1.02309503398474    7.20844764272884
H        11.61757908636156   -1.78411908416781    7.97245368656428
C        10.49116079658561   -1.01331320665122    6.32316115132836
H         9.72009794382872   -1.76719557218656    6.39243114756652
C        10.41425660297280   -0.03665815999560    5.34591195023225
H         9.57547647225438   -0.04531013278771    4.66044481999984
C        11.24796102278091    3.96614110872206    4.90874037315957
C        11.61295330447740    5.17930710983326    4.32928464155223
H        11.97718446412101    5.19255851925848    3.31009277675574
C        11.52349263802201    6.36376223306256    5.03636807946149
H        11.81546811039622    7.29377358287148    4.56991980934183
C        11.05655991718523    6.35746108386832    6.34032768066284
H        10.98281315320038    7.28203261144063    6.89423067249264
C        10.68372916488176    5.16134659445577    6.92934510897821
H        10.31729038792747    5.15002751412946    7.94584846332756
C        10.77870669357338    3.97855124701262    6.21822245468251
H        10.48964097640589    3.04781555145589    6.68525745395459

