61
CSD_code = HAVNIE | q = 1 | S = 0 | Stoichiometry = C27H26N5O2Ru(1+) | MND = 6
Ru        0.90366792728670    3.50165527797713    4.02818220016901
C         2.02656592155351    6.22377360730815    3.63703201439406
H         1.42237428028672    6.24229315515576    2.73657034887705
C         2.71813361914732    7.34587818926830    4.04774876264487
H         2.65980962342043    8.25629554686435    3.47424377351989
C         3.47796289022000    7.27791116857990    5.21009751239344
H         4.01952089132409    8.13896944033831    5.56667857657178
C         3.53301796382121    6.07847890678605    5.89481670736670
H         4.12676597068405    5.99309063765208    6.78943371321314
C         2.81720425892551    4.98055543540369    5.41996052020228
C         2.85772610911398    3.64650395949854    6.01754333220171
C         3.49180639000630    3.33778959717092    7.21918781701346
H         3.95881226422202    4.11345256190679    7.80265739682705
C         3.48935978212361    2.03261733872390    7.67527890840238
H         3.95690098519520    1.77811233512285    8.61273896005558
C         2.87117362847132    1.05882600551573    6.90240393479406
H         2.85378739249958    0.02744593711166    7.21443406516465
C         2.25603308987790    1.43763321259374    5.72376174935025
H         1.76581682122494    0.70060835438406    5.09889229107087
C        -1.52510094661153    5.19873843328826    3.29959749908326
C        -2.65720761913197    5.41987781455548    2.51555820488320
H        -3.42835763882164    6.07807039286888    2.88212620362228
C        -2.78356578250537    4.79235561836777    1.29105470073979
H        -3.66364499657456    4.93391990421807    0.68436431390195
C        -1.74201062503398    3.99659908943382    0.84564280594611
H        -1.80206543183049    3.52423267729567   -0.11972828611506
C        -0.63083750275067    3.81300698895104    1.66399430682180
C         0.56565441001438    3.07626593692178    1.25100884598802
C         0.71303767704490    2.53643050831473   -0.02494776403098
H        -0.09452920136443    2.58218892360338   -0.73493397360327
C         1.90895099534216    1.94364430928537   -0.37998805808681
H         2.04096954202749    1.50650242880882   -1.35624608330167
C         2.94322354480564    1.95553219523923    0.54143295766103
H         3.90601988863200    1.54144931596664    0.28939047454195
C         2.74567293822327    2.50399524535782    1.80170439006600
C        -1.39814802943665    5.91953697983423    4.59839635895907
H        -2.05857084451005    5.47351019196435    5.34247196065791
H        -1.69552166883268    6.95922066324810    4.47479800904743
H        -0.38452157284685    5.87216547133830    4.98796399970163
C         3.88738056997804    2.54223113193769    2.76696821673386
H         3.87198789772612    3.46797182310044    3.34040038848403
H         4.83006804820296    2.47741165111482    2.22996022900937
H         3.83617336927584    1.70071254282740    3.45682430383603
C        -0.69854922161363    0.79018082833333    3.22851364036619
H         0.21089823963878    0.34809603652149    2.81174763848913
H        -1.29003121855854    1.18781950524963    2.39543451624118
C        -1.51582794953881   -0.19641748597262    4.08706569005834
H        -0.89673429485311   -1.04185779110119    4.38611592827530
H        -2.37659270815130   -0.58137123291475    3.54704782448406
C        -1.91702501801763    0.63622509552914    5.31463373107536
H        -2.95339057289212    0.97965471910675    5.27457055945863
H        -1.78977780270621    0.12101029554187    6.26580605981645
C        -1.00769015548927    1.81070428698750    5.21232342620194
C        -0.80448523009412    2.89352780977830    6.27479829854154
N         2.05517369841624    5.06700596724898    4.30322213858069
N         2.23002334951561    2.69528891169830    5.28894102073358
N        -0.55569765241924    4.37222374404305    2.89549004143140
N         1.56100307647773    3.01459095951390    2.17367838944938
N        -0.35442424976127    1.89154290686861    4.11579963004235
O         0.00293065671348    3.80675166563237    5.91104316556634
O        -1.39349977709869    2.81766287273522    7.33349171240929

