75
CSD_code = HAVPUR | q = 0 | S = 0 | Stoichiometry = C29H41ClCoN3 | MND = 4
C         8.10512620566803   12.56545699719978   17.09645854094876
H         7.63927914466378   13.53429422597993   16.93409618662350
H         8.52350727624824   12.54072647935942   18.10282048229237
H         7.34809766524595   11.78502948183045   17.02993644832911
C         9.18261286537118   12.31675199829450   16.09078650404420
C         9.83530288485937   11.04608640297379   15.97418170531488
C         9.66732898055941    9.90137506536842   16.74463490675831
H         8.94565518217391    9.88504245461903   17.54538979018880
C        10.45203998982173    8.79096450971067   16.46902108356596
H        10.33998431350807    7.88996804177665   17.05206491462935
C        11.39230490122240    8.84429451896085   15.44916016921843
H        12.00984416699733    7.98368736630390   15.24834085330645
C        11.52336615019504   10.00942658312729   14.69832499007368
C        12.40079223930166   10.29458327875241   13.59332084050494
C        13.35910974355054    9.25218546747261   13.09471014487078
H        13.03818532644694    8.86179384928444   12.12850875319578
H        13.40713502993952    8.42313532836284   13.79304047410327
H        14.36125664752858    9.66258986124703   12.98550260243690
C         9.10007011043428   14.50944874167094   15.25210478408167
C         8.13731126936245   14.85889145143290   14.29848624542644
C         7.58438802241966   16.12951699504833   14.34727153160187
H         6.82392010446525   16.40907230995673   13.63481412532112
C         7.99598525244588   17.04614088803800   15.29553363311893
H         7.55596668206550   18.03224363970624   15.32131415556435
C         8.98571319243911   16.70658343883567   16.19722690690589
H         9.32415051254076   17.43929135162076   16.91367165224653
C         9.54955227689167   15.43920327958614   16.19781866860235
C         7.70846179015162   13.86624446041308   13.24317767563294
H         8.43941415461128   13.04316163177094   13.23118056715723
C         6.33299984828888   13.28658178829234   13.57879688543646
H         6.35092100215949   12.78427209265618   14.54383664037851
H         6.03229708211658   12.56623982337772   12.82085845779077
H         5.58750218970696   14.07825369534955   13.61810894454078
C         7.71366285319253   14.49651068904180   11.85132108438344
H         6.94278718290748   15.25659108439047   11.75413404177535
H         7.53286905932046   13.73221586807392   11.09862831648746
H         8.68152115433245   14.95426729049229   11.66259224416672
C        10.66966055259284   15.10779450224472   17.15693715919181
H        10.92035705456206   14.04614399909448   17.05938405557035
C        10.27405274572433   15.37233826427582   18.61087662378455
H        10.13098902933075   16.43503949863731   18.78869989748859
H        11.05759390280094   15.02080141029598   19.27915000337822
H         9.34868520111165   14.85748698404451   18.86186619884435
C        11.91524530516353   15.91162816405262   16.77462990071172
H        12.18323202072559   15.70576119074445   15.74116656528705
H        12.75158537510901   15.63890269475386   17.41522397687558
H        11.73295300497206   16.97875288601196   16.87564903461761
C        13.03298978624400   11.85081935357768   11.91853019782110
H        13.45165384206573   10.94043613745689   11.47291182280144
C        14.18898074508175   12.75787818602830   12.35178939753738
H        13.79460006878999   13.69762790884043   12.72641136091077
H        14.85188143102527   12.95576641384298   11.51482179357462
H        14.76368797494279   12.27960565306034   13.14338156219807
C        12.16018398578481   12.50635506973554   10.82582899139252
H        11.95524587767408   13.53860470784387   11.11539046990933
C        10.82538042820536   11.77304716743755   10.67446278006554
H        10.27858272575347   11.82400873209415   11.62565432421947
H        11.00636265496158   10.71852331008268   10.44416920403114
C         9.97827299568488   12.40251513122050    9.57456381916294
H         9.03384792751006   11.86098945017447    9.47926278941929
H         9.75199736425918   13.43383344815674    9.84887142995903
C        10.72338515597816   12.39233914496882    8.24480637108969
H        10.91603971019176   11.36057717194037    7.93943944905188
H        10.11276751902007   12.86167605339970    7.47043967899460
C        12.04602045191498   13.13548312346086    8.39116988387786
H        11.84827396247647   14.17710041229511    8.65153404589823
H        12.59112312093179   13.12227791492492    7.44443223183799
C        12.89739480846056   12.49825552419447    9.48505529404072
H        13.83849536628908   13.04311320876288    9.56888607732337
H        13.12996223408176   11.46686991631135    9.20223670394445
N         9.63564357115025   13.20027249741133   15.23862471005652
N        10.73724601955037   11.08381622439726   14.95800288905938
N        12.25605130700745   11.49509266579123   13.09635272542051
Cl       11.44476462367347   14.44728604917751   13.36641208120848
Co       10.99228769610092   12.56845739878820   14.09539854845727

