75
CSD_code = HAVQAY | q = 0 | S = 0 | Stoichiometry = C29H41ClCoN3 | MND = 4
C         9.20601466813153    4.31208437155136   17.02665638422596
H         9.64731756423748    5.29581267399005   16.88745092091879
H         9.98017283885885    3.55221477520010   16.92545368334468
H         8.80277337761981    4.24549799333855   18.03718650724851
C         8.12091096123024    4.06774278335408   16.02826858490014
C         7.46545524235120    2.79834907089324   15.91373182098645
C         7.63887107581537    1.65059013640177   16.67844266752048
H         8.36932655205747    1.62975485078052   17.47108138081409
C         6.84876753243857    0.54295812497935   16.40703630905792
H         6.96476539897039   -0.36034896101861   16.98572732557993
C         5.89857396086803    0.60164111406385   15.39665194270308
H         5.27757492488323   -0.25712760060713   15.19860429608133
C         5.76311103008600    1.76936929651579   14.65065821384375
C         4.87874008794520    2.05926879190723   13.55247107387599
C         3.91098801071181    1.02198886094056   13.06153227593365
H         2.91173805802404    1.43955699072098   12.95325714082500
H         3.85859899736399    0.19705500389214   13.76448346768792
H         4.22594898882984    0.62410614491986   12.09642005526461
C         8.19894187602661    6.26313301368145   15.19720647908417
C         7.72482837951717    7.19927060568427   16.12404038654489
C         8.29158059556991    8.46529346576943   16.13262546375503
H         7.93666013888675    9.20175378178206   16.83724336424650
C         9.30453127779673    8.79881313155613   15.25462971604565
H         9.74507499421625    9.78451140778121   15.28634445682293
C         9.73828305413195    7.87667935370296   14.32180959700407
H        10.51576972200248    8.15129939185938   13.62569526848078
C         9.18663442878809    6.60557921659066   14.26751171102055
C         6.58126809411856    6.87275956704165   17.05674032481569
H         6.30656848255755    5.82010388539926   16.92747418771038
C         6.96423765535053    7.09044699579941   18.52171009488694
H         7.86248204960051    6.53097207529629   18.77559409950077
H         6.15603736804284    6.75967880549427   19.17092977914835
H         7.15066223492461    8.14241329537172   18.72244282435781
C         5.36023187115491    7.71528282463366   16.67934297419687
H         5.56223997017424    8.77486353538959   16.81539393586811
H         4.50809415644162    7.44166501655276   17.29836003971731
H         5.10485814417734    7.54513182581890   15.63625951831959
C         9.63834459883023    5.61176294850840   13.22285218378965
H         8.94451142877952    4.75834097105120   13.23665377785698
C        11.04414028852139    5.09725006795131   13.53726436553136
H        11.75807816245600    5.91817780596877   13.53962027245232
H        11.35585520383563    4.37134787337044   12.78914320273504
H        11.06985326838977    4.61847249392299   14.51412469664239
C         9.57524549317057    6.22420922774647   11.82399850101232
H         8.58106036024283    6.62819720930257   11.64957618133782
H         9.78224327397532    5.46257953720043   11.07532502941477
H        10.30180138867044    7.02400060227498   11.70632027286466
C         4.24648461013137    3.61742357551967   11.87966492233762
H         3.82121628390034    2.70843213709292   11.43746288450889
C         3.09742806098038    4.53183265556908   12.31585158335541
H         2.51833699215469    4.05552729161711   13.10539478027220
H         2.43692623249767    4.73830024867727   11.47904754051304
H         3.49913360557839    5.46716500198400   12.69381482297687
C         5.11637569958170    4.26818413224125   10.78125712584905
H         5.31232586684459    5.30518123702199   11.05997524462003
C         4.37960896919950    4.23959416598875    9.44048308879629
H         4.15847622363569    3.20312734647390    9.16720957639358
H         3.43227171905148    4.77445725952463    9.51940700070497
C         5.22414037853669    4.87555584330911    8.34067695092288
H         5.41093950047025    5.92159088765155    8.59115322342518
H         4.67940832263008    4.84762205602058    7.39403684880498
C         6.55444350387677    4.14475437394113    8.20157445534807
H         6.37226940148423    3.10836379966962    7.90558886896557
H         7.16053072126734    4.61316988725850    7.42311877220817
C         7.29903497695733    4.17428824643015    9.53136438607473
H         7.51554979955207    5.21019578125987    9.79626225946168
H         8.24883053136990    3.64146038140907    9.44089956678040
C         6.45828056103717    3.54648634184061   10.63714528239031
H         6.28810515337184    2.48801035067361   10.41709071612182
H         7.00490167536168    3.61256519536612   11.58792204298270
N         7.66246173783645    4.95377465123922   15.18162067758602
N         6.55379801846488    2.84123320321809   14.90658800482163
N         5.02645476544462    3.25905185241393   13.05449917078534
Cl        5.86259300253148    6.20521881932167   13.30734146801797
Co        6.29970645544912    4.32662892291874   14.04520197901258

