67
CSD_code = HAVQUR | q = 0 | S = 0 | Stoichiometry = C20H36N8NiO2 | MND = 6
Ni        3.05503524221412    2.29827506693472   28.27062970861893
O         6.87432446746629    3.21082656813347   29.40133963670285
N         3.44934010810845    3.90570865191423   26.87787706121160
H         2.61002510811392    4.00805709295877   26.30656523541662
N         3.43618728015387    0.73316476389177   26.78402650362906
N         4.53856293277065    2.32044991847836   25.32624665472490
N         4.77996459448772    2.31022903781146   28.80793683582993
C         3.56684756127169    7.64484728183512   27.70670375483449
H         4.57418868462081    7.67316887018773   28.12753297806129
H         3.43906204427074    8.53138364926681   27.08297948867200
C         3.40858157638602    6.38914127678634   26.85686752220288
H         2.41459850698680    6.38380088965859   26.40047812516710
H         4.14969773757795    6.39806348409456   26.05517776382813
C         3.57887420324727    5.11545766606135   27.69528719428947
H         4.57974526673081    5.10313476317205   28.14332118809208
C         4.58243520745463    3.59801202725110   25.97702145831752
H         4.66041953322795    4.35235202779306   25.17769819344508
H         5.49555574516375    3.63379168242013   26.57887821618516
C         4.69322638752597    1.13028711257433   26.11357865171026
H         5.46711282450060    1.29767016597520   26.86278834268481
H         5.01796391884861    0.32418401220781   25.42993681553125
C         3.56495659051089    2.12257583900188   24.26883344803248
H         4.01138824607168    1.41958867956176   23.55365086443811
H         3.40116175513257    3.06875780521216   23.74960622730103
C         2.24090412233658    1.54593035867674   24.77674437370856
H         1.63605240046111    1.20555903703417   23.93439709471227
H         1.67580920513636    2.30515869220223   25.31418613156118
C         2.49401589549777    0.37270811067986   25.72138319516329
H         1.54659178297075    0.06311655682107   26.16451005824208
H         2.90584819065317   -0.47669247483876   25.14759074181699
C         3.59978095222217   -0.37902488473823   27.72393836543733
H         4.57699478785374   -0.28108040975402   28.20090545464803
H         3.56706630569457   -1.34440456122291   27.19540425200582
C         5.81155637406033    2.79766522975033   29.09247292156723
O        -0.76122655488506    3.21358736424465   27.13421041274191
N         2.66067977419922    3.90577930008739   29.66323823465779
H         3.50000887409099    4.00816049315547   30.23452351523911
N         2.67395688026927    0.73308202280456   29.75711529464664
N         1.57167547828322    2.32046312186531   31.21488672457217
N         1.32964487281879    2.30990464250895   27.73480135133117
C         2.54285951755998    7.64484357133497   28.83426504690806
H         1.53551707950036    7.67307567890385   28.41343487673919
H         2.67058367437099    8.53141933603950   29.45794709721939
C         2.70121872108513    6.38918965791043   29.68415719563391
H         3.69518863217368    6.38395880290451   30.14057752882948
H         1.96008023255289    6.39807582032819   30.48582908660153
C         2.53105191902007    5.11545848588727   28.84577645346222
H         1.53018241165247    5.10305234119228   28.39774289310656
C         1.52760786710078    3.59798855998597   30.56406367279546
H         1.44945628403902    4.35236579517118   31.36334314092551
H         0.61451874812465    3.63355720647723   29.96213922578962
C         1.41694693305746    1.13030432902220   30.42754667174538
H         0.64313437511816    1.29780383924117   29.67826052589981
H         1.09213739020955    0.32422687608894   31.11118970139881
C         2.54551934090674    2.12273149914749   32.27211845416554
H         2.09927151257253    1.41982897637554   32.98750060917256
H         2.70940123966613    3.06898630728110   32.79118829922519
C         3.86948783303160    1.54604089941635   31.76402019475066
H         4.47458319593362    1.20593071003254   32.60629683638555
H         4.43439031976505    2.30510639222246   31.22612054806058
C         3.61613308104785    0.37260219472238   30.81973101827762
H         4.56346637607006    0.06275114961857   30.37659648709785
H         3.20419745721909   -0.47660174049529   31.39373938419807
C         2.51031037312027   -0.37905114712065   28.81715830808729
H         1.53309636752969   -0.28106084973378   28.34020511559129
H         2.54301668393656   -1.34446033861183   29.34563996988411
C         0.30102756912998    2.79933471419805   27.44324166707005

