29
CSD_code = HAVQAW | q = 0 | S = 0 | Stoichiometry = C10H12Cl2N2O2Pd | MND = 4
Pd        6.79254503593859    1.76358184931476    8.51663675493383
Cl        7.52385661385955    3.08317894655925    6.92223479791803
Cl        4.83169222322910    1.22339545821415    7.56921150424027
N         6.07934605925499    0.70232639278211   10.18899611932493
O         4.90634224440256    0.01916541398520   10.23414530480800
H         4.51773877954750    0.16364311355678    9.32014015748438
N         8.29734926308438    1.58766312190056    9.51848759409145
O         9.18157822193919    0.82526442575035    9.13205656522852
C         8.05080439685844    1.69902044742435   10.97662873591902
C         7.62824560346207    3.15090084857159   11.25331948514928
H         6.82071132822786    3.44835301671975   10.56219973556797
H         8.47764026951724    3.81444199603262   11.10255007226039
H         7.27818783494797    3.25377240496126   12.27778715189569
C         9.27930774318667    1.29727154801767   11.78082799025773
H        10.08344460456105    2.00285535011927   11.58538196648821
H         9.61919329413548    0.31023653309518   11.47628964183840
H         9.05583184628969    1.29623661131795   12.84345477628317
C         6.82555369325290    0.81556637444555   11.21963567002643
C         6.48935268126543    0.28331214943221   12.55027710086508
C         5.38509079756036    0.80918346170269   13.21668360058126
H         4.80759159548213    1.59602336986390   12.75576236538931
C         5.03581857094602    0.32422446842590   14.46305398028233
H         4.18265917161672    0.73904734715762   14.97698415322459
C         5.77303263335696   -0.69282280931190   15.04641110549836
H         5.49587848057562   -1.07236849909942   16.01800001581361
C         6.85938880376513   -1.23003602995480   14.37701056216090
H         7.42749773261568   -2.03246864803374   14.82235919949946
C         7.22237618074490   -0.74511606761745   13.13348410352164
H         8.05454429637690   -1.18225259533231   12.60478978944722

