78
CSD_code = HAVQEC | q = 0 | S = 0 | Stoichiometry = C30H44CoN3 | MND = 4
C         0.75415411801036    9.63513322350932   -1.37102185697676
H         0.23378054058180   10.15844030084956   -2.17291423119227
H         0.08112830204361    8.87102847074916   -0.98252246044242
H         1.64034535991053    9.15579557163001   -1.77996901593226
C         1.12054007009513   10.58848579431903   -0.27625047408718
C         0.12753638456501   11.15946951642028    0.58227137904264
C        -1.25498070745525   11.19188948231903    0.43467109925834
H        -1.72781307760571   10.68978339812820   -0.39472706484507
C        -2.00813162990855   11.90520904944400    1.35754650897017
H        -3.08280985290081   11.94413703069565    1.26288587494949
C        -1.37618884713025   12.60444581775367    2.37805088664208
H        -1.95477156272731   13.20598986420460    3.06094005605768
C         0.00882676553182   12.52769087268304    2.49689298697272
C         0.87671568954465   13.18265109454063    3.43917011779213
C         0.21726710846972   13.96835215704181    4.53649359651659
H         0.90328109912210   14.35788791099826    5.27558826313180
H        -0.51425371823013   13.33678659065417    5.04056666900575
H        -0.31813413555938   14.80846632118293    4.09216130846323
C         3.43874897191968   10.47247044000431   -0.70353730920542
C         4.31335255872162    9.56573037325976   -0.08200403071359
C         5.40353295919092    9.09059418967172   -0.79217841001560
H         6.07677020231374    8.38053416358236   -0.33949998314295
C         5.64717836517704    9.51751722656282   -2.08478986742237
H         6.50143943514006    9.13927753809791   -2.62701530506958
C         4.80360445571563   10.43641813706872   -2.67588046816636
H         5.01457082433890   10.77827305150972   -3.67783295276051
C         3.68901640345246   10.92497493422643   -2.00807083478169
C         4.02463046979479    9.12468145862845    1.33393593813048
H         3.59668257222718   10.00130718293420    1.86663044675156
C         2.97931132454417    8.00522651130383    1.33885506021277
H         2.04440204899688    8.34288997770085    0.90043136897557
H         2.78117040867126    7.68022404512055    2.35823510596771
H         3.34129105967568    7.15166349246449    0.76763205304672
C         5.26875791337211    8.67313045547742    2.09328697330896
H         5.64949887853648    7.73230909160444    1.70151327812973
H         5.02058217376819    8.51790324271635    3.14064851748645
H         6.05243318741678    9.42405461372628    2.03122160472304
C         2.81116536414401   11.95370531805437   -2.68714479318481
H         1.94931266298353   12.16363116626017   -2.04788744856025
C         2.30386167767823   11.45195117228267   -4.04276034835655
H         3.11597550824044   11.39764735109086   -4.76351178627879
H         1.55221444333391   12.13458531056384   -4.43429142625294
H         1.86175490412582   10.46226767741773   -3.95731218631286
C         3.57380895427761   13.26820291207711   -2.87512396961034
H         3.86481181438499   13.67666085226304   -1.91139098550464
H         2.94195012808912   13.99613021191805   -3.38004515471052
H         4.47031478472444   13.11558766403564   -3.47161151362702
C         3.19479310990041   13.51303260738633    4.07864164324247
H         4.13295299123882   13.23888102229649    3.59598390471250
C         3.16101682396845   12.78728006849645    5.44383367984080
H         2.14774774034830   12.84961309651805    5.85058796845623
C         5.85476308493414   11.66288703471732    6.03192292471878
H         5.66197846435598   11.19547046929629    7.00118991128536
H         6.90324605069416   11.48925539672319    5.78034797677400
C         5.57927632169790   13.15839797175858    6.13263347266980
H         6.21196364363657   13.60322886793861    6.90434391813858
H         5.82372423921460   13.63935354807509    5.18437141261092
C         4.95636376974864   11.03020376806689    4.97520495488053
H         5.21559115750171   11.42300100782098    3.99132820282179
H         5.12609917545319    9.95199908606122    4.95234294241819
C         3.48199549593981   11.29573455117495    5.26809309812852
H         3.20631049505746   10.77303599358278    6.18822962269465
H         2.87173596251353   10.89118048764140    4.45509712962858
C         4.11320941123600   13.39577380923932    6.47893380038014
H         3.92291293998040   14.46385307314707    6.59028143772074
H         3.90587215236358   12.92616345959836    7.44481972920878
C         3.19136987193915   15.04750223260770    4.15794911884231
H         2.88551667810654   15.44643573305085    3.19316555873715
H         4.19473410721899   15.40911742371487    4.36827963676661
H         2.52561111198338   15.44289189362322    4.91920586005891
C         4.13890976500854   12.93983883617233    1.06927552559101
H         4.40760617464488   12.87859157724608    0.01299707176952
H         4.94396772495796   12.41302566505049    1.60326405622309
H         4.22018745509330   13.99473025765646    1.34516129487596
N         2.34386934585405   10.95151510337022    0.03790910572803
N         0.73174231345977   11.76381736991052    1.63981029848018
N         2.15255317368732   13.00867435954328    3.18425631563215
Co        2.47214288696641   12.03512199972707    1.57690321056277

