67
CSD_code = HAVRAY | q = 0 | S = 0 | Stoichiometry = C18H36N8NiO4 | MND = 6
Ni       10.04185580081198    3.03617815962193    4.04800874969954
N         8.39696423013634    2.73791620627546    2.61838031931625
H         8.29057070847433    3.61897087097910    2.11336161380386
N        11.65841295771316    2.77265006474290    2.51569092819303
N        10.02619604598188    1.78678025008116    1.02145787148277
N         9.17299536566441    0.68058026832918    4.96816678689404
O        10.15353769477085    1.23505628815339    4.36140351786710
O         9.17545605907755   -0.54831058019503    5.07093217432084
C         4.66347025417304    2.56047982209376    3.45333832855435
H         3.77672065896842    2.72679617895461    2.83908782678401
H         4.63572082058525    1.52894840780100    3.81055122934716
C         5.91863415820452    2.77374025016420    2.61520245380155
H         5.92446885910272    3.79545261043678    2.22591013573410
H         5.91056274475027    2.08691503229419    1.76646761513501
C         7.19402343996303    2.54985554946881    3.43776617786706
H         7.20920639682489    1.52308753211633    3.82219515035845
C         8.74336002345315    1.66881205033994    1.65652376538564
H         8.72637468532017    0.71743905493797    2.19708898505104
H         7.99890625452907    1.61626576178234    0.84566822350099
C        11.23091785328043    1.56800048555503    1.77199371927082
H        12.01878269665629    1.27947402884146    1.05193739661804
H        11.07278215777935    0.74822707809368    2.47208557097585
C        10.21680932810987    2.82803103861418    0.03041604106399
H         9.26583396149074    3.03597470621447   -0.46303893992932
H        10.90791020246039    2.42846689417314   -0.72350425058162
C        10.81002893123478    4.11109288663491    0.61938108483848
H        10.05023063381691    4.63944749147836    1.19250009306976
H        11.14007660627249    4.77103613055584   -0.18495134181779
C        11.99883771976990    3.79526392868122    1.52746860550358
H        12.84483491669107    3.44010885950065    0.91176797734329
H        12.30819708411528    4.70701888148726    2.04166714006290
C        12.76220644400006    2.53945887431473    3.45420392747496
H        13.73187081530517    2.61695881299742    2.93900968911719
H        12.66107078382168    1.52585286314717    3.84619642015211
N         8.39692845242827    3.33465187117516    5.47769909297458
H         8.29046371628812    2.45367173497959    5.98282403949726
N        11.65838769406655    3.29991954767860    5.58026617534984
N        10.02622420124990    4.28592930070056    7.07447278742087
N         9.17316329192000    5.39188059265518    3.12766087836451
O        10.15342503661588    4.83737472970144    3.73485003873091
O         9.17565535932144    6.62080477220710    3.02501536646744
C         4.66344885952266    3.51202023066367    4.64266224450882
H         3.77669451852908    3.34567178172999    5.25689653869047
H         4.63566570666910    4.54355020404554    4.28544725055387
C         5.91860194116895    3.29879673126354    5.48082614991589
H         5.92444422663102    2.27708821279180    5.87013312403660
H         5.91049776168917    3.98563088047766    6.32955432186187
C         7.19400716358374    3.52270376058919    4.65828222507733
H         7.20918825511208    4.54947487338270    4.27385834476233
C         8.74337156863052    4.40385724129386    6.43942914756886
H         8.72640090921904    5.35516887940939    5.89875565694725
H         7.99895008090332    4.45651969577429    7.25031173168491
C        11.23092423602302    4.50463699762416    6.32389012084270
H        12.01881512812036    4.79318049592698    7.04390821009580
H        11.07278662388884    5.32436760603101    5.62374529270108
C        10.21683702076895    3.24474463643293    8.06558332234331
H         9.26587821299723    3.03687998170874    8.55910379361737
H        10.90799483286990    3.64431967620831    8.81944427254942
C        10.80998265560918    1.96162284293366    7.47667488926967
H        10.05015457187018    1.43329683594053    6.90357273978686
H        11.14000520063812    1.30168851772376    8.28102700637415
C        11.99879360220525    2.27736280326955    6.56856123473047
H        12.84479162776146    2.63254401555510    7.18424250898397
H        12.30814102869590    1.36557006893295    6.05442533819255
C        12.76221714821437    3.53303292722791    4.64177064844647
H        13.73186084041754    3.45546213138058    5.15698898681813
H        12.66117123306132    4.54664868391699    4.24978153457528

