78
CSD_code = HAVSEF | q = 0 | S = 0 | Stoichiometry = C36H33FeN7O | MND = 5
Fe        3.53321698438555    3.91526898975313   11.64205530131875
O         4.05194903698066    3.82604793790916   13.63268957690288
N         3.07444143973884    3.92275697383697    9.64281835355993
N         4.63098594685081    5.45675676300875   11.12019313891271
N         4.84889414940158    2.47677010746317   11.04537681450021
N         1.78957829617131    2.95961550763969   11.88716976930122
N         6.40229018655885    5.18442530412690   13.47719167634374
N         5.57831794837595    1.76061546565901   13.91580132385602
N         1.97538500108861    3.08044328541567   14.93235084053791
C         2.86945840676733    5.35713455067220    9.44009440612890
H         1.95139003169693    5.65127664400263    9.96755699459455
H         2.75971172845540    5.62074539284607    8.37834491678678
C         4.07124038626544    6.02249740623268   10.04225485988754
C         4.81687137893194    7.12609981792769    9.58988344783840
H         4.57300187385585    7.74938284722498    8.75095250993297
C         5.89835646612604    7.22989094657362   10.43008232707375
H         6.67902249405337    7.96469236783563   10.40778007162854
C         5.77030200417867    6.19013124569079   11.39551531612603
C         6.63383132248176    5.99133990481809   12.45637428703301
H         7.54332721713014    6.57978490016243   12.47027829265726
C         7.23510505726938    4.94570411736485   14.56253493081111
C         8.61523822843082    5.13388224574407   14.50934715897160
H         9.08631588800379    5.44833638380533   13.59050641397764
C         9.38897050643715    4.88459481965247   15.62752426488872
H        10.45866987790856    5.02421426283170   15.57521747276433
C         8.80370511348927    4.45200115540096   16.80571571566984
H         9.41440589089992    4.25926154139410   17.67424218841805
C         7.43248212397956    4.25771432836745   16.86047369628993
H         6.96879038622770    3.91135937452553   17.77092708635073
C         6.65190811534843    4.49411765946678   15.74770018921019
H         5.58652788722588    4.33436523010964   15.78771031122165
C         4.22581416389687    3.42517281068540    8.87792441180936
H         4.92410499804308    4.25073169840408    8.70821571539921
H         3.92128244392090    3.03425258914379    7.89895522963588
C         4.89755355142677    2.37987019731154    9.70559174065966
C         5.65044127889989    1.28196580540823    9.28929070452214
H         5.83976347219173    0.98796529495183    8.27439448077879
C         6.09188143646034    0.67123230139716   10.44661879919994
H         6.70734064360516   -0.20457204934219   10.52710548968541
C         5.59472261930964    1.42650335768573   11.52809353101951
C         5.93631220359899    1.11721325574759   12.85999365724943
H         6.56657243900718    0.22518424019228   12.95211323406702
C         6.06908066282675    1.42943345108482   15.16683118561778
C         7.41957273020855    1.15609906837613   15.39207917953112
H         8.10860222098757    1.17182078758345   14.55946259643918
C         7.87434873325737    0.90267307012769   16.67106475814327
H         8.92309666792158    0.69823505695367   16.83386501714975
C         6.99648483974997    0.91072495001554   17.74222161431866
H         7.35720263137636    0.70887288194056   18.74015985508152
C         5.65448034873765    1.18352028536722   17.52643650274708
H         4.96098700480083    1.19465095591029   18.35511692628291
C         5.19335994213326    1.44776917015989   16.25347299582241
H         4.14891530775734    1.64911703375387   16.07982787251180
C         1.89374665081960    3.08709875196306    9.42293977063165
H         2.23630881083183    2.10303482599311    9.08636864935280
H         1.24005903474848    3.50521783723633    8.64610132725891
C         1.14614809290225    2.90367936824237   10.70317957590187
C        -0.20313063008270    2.58981673033926   10.86027815550205
H        -0.92706942862238    2.48735846382129   10.07440159790738
C        -0.39845006781453    2.43516876649121   12.21939527277216
H        -1.31709365997143    2.19778686037760   12.72157645370598
C         0.83937501766288    2.67628119741500   12.84666298333349
C         0.95758071135537    2.68087409743930   14.25208827746286
H         0.04151493557931    2.36474445702317   14.76406602892487
C         2.03581327229613    3.02295216064853   16.31149012996166
C         1.48608612274814    1.98225287327810   17.06429445978802
H         0.94908124574968    1.18902625056448   16.56394529617903
C         1.66364425439585    1.94557115492387   18.43358951846414
H         1.24056283837764    1.13099057391600   19.00424810368458
C         2.38422923917614    2.93881927606795   19.07577258429653
H         2.52157178766702    2.90290053894927   20.14641159523141
C         2.93489613416165    3.97417177018760   18.33608915757305
H         3.50109723598404    4.74988310496665   18.83146236960214
C         2.76958931444245    4.01633665226694   16.96766149664098
H         3.18920241298199    4.82375683010898   16.38568707288639
H         3.22659973103148    3.60050717164942   14.18143302838205
H         5.47877848826065    4.72729879808321   13.51103937488500
H         4.60744674050655    2.98200779775208   13.73571856850237

