39
CSD_code = HAVWUZ | q = 0 | S = 0 | Stoichiometry = C14H20ClNO2Ru | MND = 9
Ru        7.94162338378820    2.67132846974251    0.51229819377489
C         4.65326444540288    1.28679481948219    2.79969851204962
H         4.63319743970195    0.25812987116739    2.45059219721934
H         3.67252192791319    1.74143418045931    2.67776968451700
H         4.90748617036466    1.30267185024347    3.85786832581433
C         5.68447441807159    2.05891972130375    2.03225851501404
C         5.85587184144161    3.44769358200116    2.19486779882377
C         5.03064488606490    4.35113769923386    3.05808559789042
H         5.10241101405767    4.04882247990774    4.10126089599995
H         3.98290391448526    4.33116671041794    2.76088944536260
H         5.41227931892479    5.36457104304919    2.95423418794632
C         9.97708012503854    3.34154934834657   -0.47756828788672
C         9.91683780171346    1.92807355509779   -0.70113898189066
H        10.76732212468109    1.31724203106447   -0.41809728179573
C         8.81690019650733    1.34773128113154   -1.31022344446177
H         8.79749931317967    0.28375534078710   -1.51289198385444
C         7.69106820745626    2.14570915276119   -1.67143256532256
C         7.80379710186978    3.55141095468464   -1.57659649036550
H         7.02906634369729    4.18440873351579   -1.99641217887799
C         8.95301714140340    4.14086701329737   -1.00887656346528
H         9.02965004664284    5.21990085826308   -0.97235657446701
C        11.20745994098148    3.95743345114848    0.14738259032951
H        11.79177482233931    3.15313466427374    0.60792846984175
C        10.83366686379232    4.95536385211469    1.24429388656436
H        10.32142529128374    5.82307363021313    0.83705076773019
H        11.72972618541903    5.29394915008097    1.75817781486984
H        10.17800053534336    4.47666237434655    1.97060531009845
C        12.06133805344470    4.61940684681829   -0.93969701874151
H        12.33388691359078    3.89894206748647   -1.70887388958232
H        12.97250072233392    5.01799973958173   -0.50109434880348
H        11.51952798204185    5.43742165863564   -1.40922693391500
C         6.50680671131357    1.50303138878894   -2.33186543563420
H         6.78134529259069    1.14799468877041   -3.32660475383649
H         5.68445552402069    2.20888278543517   -2.42904086274029
H         6.16633988285318    0.64815112780922   -1.74907605249201
Cl        8.88873233462301    2.17299933033675    2.57398927926140
N         6.84575663985849    3.91629074230293    1.42776292797950
O         6.40322866492057    1.46589446073541    1.17598638957591
O         7.12381047684100    5.11334934516389    1.29337285747141

