83
CSD_code = HAVYIO | q = 0 | S = 0 | Stoichiometry = C38H37I2N2O2PPd | MND = 4
Pd        7.86509283527242   11.27078899347684    5.04215596079979
I         7.95643699376760   13.68424250051227    4.01457306914215
I         9.82609209915199   11.63360076618428    6.72436156704376
P         8.14710504826243    9.04095866605663    5.31942853496851
O         8.91299124575311   12.17307842510414   -1.54855034998613
O         5.52755554098497   10.74309396922968   10.42095828651259
N         5.69986798768071   11.04157658144226    2.83294743764821
N         5.07475297110277   10.86666114719650    4.89159500397561
C         6.15427457754902   11.03387877884012    4.10067458708343
C         4.33711193869355   10.85089262884180    2.83432907420294
H         3.76620923993002   10.79752715122078    1.93125990886319
C         3.94616853383505   10.73094815460695    4.12186726806097
H         2.97464302153005   10.58985905028993    4.54781868401205
C         6.48250703770202   11.31023829388294    1.69053145856492
C         5.94225374581205   11.99659265346604    0.61344337042851
H         4.91580716565037   12.32920409053902    0.63806729241132
C         6.72329942098232   12.30172136738395   -0.48632672914996
H         6.27675786121372   12.84972102992900   -1.30015247745653
C         8.06331804184424   11.92666103340600   -0.52272285483161
C         8.60272303320405   11.23677362872006    0.56596054242537
H         9.64390299139701   10.95873884723279    0.53907201980578
C         7.82405463250435   10.93832015729295    1.65907864201086
H         8.26532654041175   10.41605293805611    2.50240551542649
C         8.46132327108114   12.95566752498456   -2.62858930791611
H         7.64907875113397   12.46133887948837   -3.17181475044045
H         9.31908838077701   13.06724428293970   -3.28962381572660
H         8.13088339616433   13.94373808984587   -2.29477889077227
C         5.14246244491834   10.84200967596658    6.30283998278243
C         5.95074657990878   11.76804761945369    6.98077244843802
H         6.40609551200497   12.62203782870320    6.46949072605717
C         6.03996123023622   11.70574287437724    8.35790435994283
H         6.65785311490034   12.40423936582791    8.90061046969056
C         5.34276169378996   10.72955572794029    9.08020659551814
C         4.51497119499266    9.84088430051214    8.39856831172148
H         3.94484224001090    9.09258840165051    8.92520970081879
C         4.42146015385959    9.89930386303293    7.01829889126683
H         3.79462745455865    9.19407966279574    6.49269050162990
C         4.86404366044455    9.78535721621924   11.20947030426776
H         3.77645790644792    9.89151007979819   11.14246476068888
H         5.18048955487018    9.97770971734208   12.23317036847812
H         5.14822524387825    8.76572548721878   10.92812962413671
C         6.71913779006640    7.99709609619562    4.88059691462395
C         6.29288821913846    7.96359698755213    3.55301777477150
H         6.88955267613702    8.44055034095083    2.78487358630376
C         5.12653752510421    7.31394761556236    3.20902338719952
H         4.80735490697645    7.29796115121287    2.17620220403887
C         4.35169319483918    6.67841585887513    4.17572791265657
C         4.79039047545922    6.69830836897115    5.49285483255751
H         4.20973775441231    6.19895214916146    6.25619460972576
C         5.95567569063245    7.35452605244250    5.84721038872691
H         6.27579808927304    7.36613270149028    6.88016525115009
C         3.08694638774913    5.97645990400648    3.78939921539233
H         2.47968983572393    5.75502533285264    4.66363292960360
H         3.32042120785112    5.03628630288360    3.28933141747608
H         2.50517641049404    6.58387250411085    3.09827950329082
C         8.72032992151720    8.31533551677888    6.88000477720840
C         8.10198217157546    8.75773038589147    8.04666855484547
H         7.32810477106150    9.51194866291462    7.98197915568123
C         8.49684320961854    8.27182396824778    9.27448488855767
H         8.02059541526608    8.63704665665893   10.17319457438688
C         9.52475245434334    7.33882474463430    9.36760225841076
C        10.14118292482355    6.90891390184999    8.19938095984852
H        10.95081771732862    6.19526707950119    8.25690281951448
C         9.75226469798894    7.39071752556581    6.96277505218168
H        10.26473657060895    7.05854638451086    6.07141120288508
C         9.98404408236803    6.84651102685989   10.70402501011576
H         9.14961077887046    6.76425594082369   11.39731413569829
H        10.70043083642212    7.55250762257772   11.12468929480877
H        10.47290513596906    5.87903174811558   10.61787244246096
C         9.39323221368587    8.54865126904235    4.09238436108922
C         9.49492413856194    7.23188955091583    3.65064191659558
H         8.81770153989959    6.48134392367430    4.03825593497908
C        10.44991995372647    6.88923069965690    2.71300835913701
H        10.52035020185968    5.86382391194901    2.37779141267536
C        11.32070641448172    7.84247315817636    2.19651162758473
C        11.21066819198881    9.15691909926806    2.63835855680586
H        11.87963214651782    9.90932171938547    2.24654763818313
C        10.25844648432683    9.51178114300365    3.57348589233187
H        10.19285151786130   10.55290617893647    3.89799781637223
C        12.34777159601305    7.47707679237612    1.17142620105045
H        12.07981111218349    7.90486609946149    0.20516736183225
H        12.42518153549545    6.39839603802794    1.06053025018331
H        13.32197781470520    7.87431643333436    1.45028152616187

