106
CSD_code = HAVZUC | q = 0 | S = 0 | Stoichiometry = C44H56N2PSi2Ta | MND = 6
Ta        9.98791853762241    3.14301924769218    2.49269165227576
P         8.19981263128778    0.92821907635220    3.16484296977271
Si       13.32678897449586    4.51969554473118    2.56320824567504
Si        9.25910164343795    3.17694659246248   -1.09228185620109
N        11.02693524711869    1.73813215249591    3.34486997640449
N         8.79268764074830    3.96499382745110    3.98678300867518
C        11.00420574392676    1.10433511738284    2.08857771179213
H        11.98194537596310    1.14352021314057    1.58722408494541
C        10.37430876953623   -0.19614909663435    1.93204603870526
C         9.11959318579666   -0.48918559272901    2.50390970478226
C         8.57447057510616   -1.76316366957387    2.39007141097903
H         7.61611192582049   -1.97766273802690    2.84304359068593
C         9.24121021625420   -2.75436354589550    1.69423848365663
H         8.81728573842957   -3.74479149663546    1.62226535381473
C        10.44565317692908   -2.45994132696221    1.06872344157092
H        10.95507536873997   -3.22218321459421    0.49677379639795
C        11.00130720160261   -1.20419293585031    1.18583798208581
H        11.94781355766374   -0.98698447482092    0.70975249621266
C        11.63766553537719    1.28857331374574    4.47637415501288
C        11.63735154808952    2.13846667470240    5.59402445410195
H        11.16613595221279    3.10734527375306    5.49856882353872
C        12.21883716108963    1.75151752880604    6.78291191799882
C        12.80966023851523    0.49376898703605    6.87129585688721
H        13.26455926090100    0.18492442416431    7.80182977843136
C        12.82347277794591   -0.36704738088533    5.78277764866607
C        12.24270950298941    0.03163509076192    4.59053987200204
H        12.24744415285434   -0.63121242326993    3.73751321983047
C        12.23566271037826    2.67650694457580    7.96397636294823
H        13.25202759254456    3.01997426117224    8.15783811659499
H        11.88184807655144    2.16517375990310    8.85750719228631
H        11.60895361078690    3.54562494135056    7.78192624462506
C        13.47958450326808   -1.71245650119443    5.88704888336272
H        13.39783879748330   -2.10675176529900    6.89759260551111
H        14.53940770096584   -1.63052864993811    5.64315141262423
H        13.02795282053096   -2.41793131499998    5.19332756905260
C         7.81665603405619    3.32132624996271    4.85588210029965
H         6.99362398669845    2.96594610759280    4.21138894580207
H         7.39134183389419    4.05694010477066    5.54951201599369
C         8.33719239495323    2.13030250680903    5.63298199994179
C         8.57558924302542    0.93306640319412    4.95234280960012
C         9.07870669147089   -0.17195825367151    5.62431444355056
H         9.27540626449911   -1.08431726576937    5.07939279540986
C         9.32243234261243   -0.10160535468479    6.98439767839149
H         9.71870167856867   -0.95945314222565    7.50640367084087
C         9.04607935362154    1.06573364768736    7.67326544239158
H         9.21086989029746    1.11658803400853    8.73937711603950
C         8.55645130070100    2.17403991544154    7.00114912722665
H         8.33122857167413    3.07398622461250    7.55741526490645
C         9.27673112012930    5.18734209823802    4.41880574570331
C         9.49427241655525    6.20246021439951    3.47507388480924
H         9.18352095577819    6.03955705418474    2.44823660993820
C        10.03444898935092    7.42444218335964    3.83982110086708
C        10.34049196549713    7.65954289256653    5.17393746817791
H        10.76127968967453    8.61036116263917    5.46698529729015
C        10.10243249321939    6.68887427755853    6.13908568014687
C         9.57339005569539    5.46710973165537    5.75941620630088
H         9.41378545804811    4.70742469738581    6.50915355452152
C        10.30235275307381    8.47308659311955    2.80212845421823
H        11.33101208685005    8.38593077725392    2.45007538623003
H        10.17153006992952    9.47120074804248    3.21407851028068
H         9.64129182107707    8.35341377309540    1.94688294438418
C        10.45848956713787    6.94781951030814    7.57290847813316
H        10.23777953940395    7.97753635271750    7.84597689784174
H        11.52577991737068    6.78236612761361    7.72455752499344
H         9.91408806519306    6.28233707509425    8.23904849313946
C         6.48626507533504    0.27957792867225    3.16897395161265
C         5.71546973517469    0.12605174270413    4.31532780713467
H         6.14388320345218    0.33318464137852    5.28609180303131
C         4.40347505412445   -0.30464752932852    4.21546690869012
H         3.81249865329924   -0.43096557710342    5.11119858836581
C         3.84805077274772   -0.57427382135749    2.97632299071559
H         2.82452923720884   -0.91126624555168    2.90423249481127
C         4.60666592939066   -0.40678806714820    1.82766642171118
H         4.17373344284977   -0.61070481764039    0.85920622589254
C         5.91441581124995    0.02612127757183    1.92306879072757
H         6.51468851960157    0.16076339146646    1.03247838039380
C        11.68114521671448    4.38005648163671    1.62675270018876
H        11.90926748751078    3.95876955736715    0.64447110865213
H        11.33128741964064    5.39728249683768    1.43628675018355
C        14.42396008337789    5.80953319304655    1.66095825432678
H        14.57480854056306    5.54906598139763    0.61818884524257
H        15.40253604835079    5.88217857587738    2.12469772575592
H        13.97551930650880    6.79771994984226    1.68909280863296
C        13.10845081585498    5.11128183985779    4.36956641207103
H        12.12984327943615    5.55033572073891    4.53409836720160
H        13.84867551124419    5.86334472276643    4.62556391619256
H        13.22481881069855    4.28745828047342    5.06619518423224
C        14.28262045473601    2.86255705442119    2.55746185296922
H        13.77594924014634    2.10928408808479    3.15219664334077
H        15.27607563649055    2.99161822402277    2.97662436698408
H        14.40289025111010    2.47180636626800    1.55138901001635
C         8.58408822200793    3.23952398476170    0.67632044950592
H         7.87062563488653    2.41746593200467    0.77103302805571
H         7.98985319368681    4.15457068400566    0.78861372495443
C         7.84630803923377    2.70922353241606   -2.30220825033888
H         7.47265083717090    1.71017156903816   -2.10126193443320
H         8.18747290229355    2.72964849052035   -3.33240788760732
H         7.00794816003492    3.39409035575494   -2.22225849144260
C         9.92439049926887    4.88337641242249   -1.65703751963878
H         9.12827343590280    5.62139890111429   -1.68808010940299
H        10.34800507202383    4.82214907165433   -2.65483312869246
H        10.69732605362946    5.26164687832565   -0.99680217984703
C        10.61493926547966    1.84133296457555   -1.27698278042057
H        11.53647043408892    2.12775898404005   -0.78085776361376
H        10.84586075704635    1.66132016173465   -2.32254606923783
H        10.29076995334908    0.90044932996284   -0.84314725021239

