113
CSD_code = HAWBEP | q = 0 | S = 0 | Stoichiometry = C46H60N2P3SiTa | MND = 8
Ta       -0.50187305284826    2.27369404775219    4.43264241421758
P        -1.39699745857209    3.69031788490111    6.46848127096905
P        -2.98637448807371    1.96931263151057    3.76724126578164
P        -0.97517345477171    4.15262784821187    2.37095563980154
Si        0.37652378130786   -0.86308382616993    2.80416027345764
N         1.54198933400630    2.96776313125218    4.13546003416806
N         0.05039448211244    1.23195540621145    5.97007337577836
C         0.22134185191721    3.95639083063228    7.26082357117356
C         0.44264091662874    4.03548740501683    8.62650929195792
H        -0.38502939973033    3.96776987774184    9.31947013477785
C         1.74036941842799    4.17596375591322    9.08762309567581
H         1.93102146882748    4.22381010107989   10.14983393724929
C         2.79460282705517    4.24468389157318    8.19066160270059
H         3.80359630568266    4.35540799708963    8.56062852227051
C         2.56997655367908    4.16356909535364    6.82669131592256
H         3.39436083683053    4.20861494548400    6.12989003185878
C         1.27623293423923    4.01012750064566    6.34852642172812
C         0.90948803329146    3.89762056795733    4.91176785261991
H         0.74611061282508    4.89642497956750    4.47030659224488
C         2.24287665254940    3.29595193995067    3.01366532910883
C         2.61437932442666    4.61605870980638    2.69119458650011
H         2.39703564799325    5.41961979165922    3.38139344422642
C         3.30677603959093    4.90911859591786    1.53070141075056
C         3.66888326283574    3.88153336008781    0.66881819913779
H         4.20493097754559    4.11109963117322   -0.24138473529965
C         3.39235456773784    2.55890067999800    0.99943766607656
C         2.69964099260893    2.27572345998895    2.16045424970753
H         2.51004843108008    1.25356458048253    2.44249594810839
C         3.66236898908249    6.32908899901898    1.19060243391192
H         3.08998716369054    6.66758589019430    0.32557240966390
H         4.71883858491222    6.40919267447197    0.93967727041054
H         3.45268122144793    6.99633773026927    2.02409169350986
C         3.83405545551014    1.44565008147301    0.09392134220679
H         3.02564087250918    1.16957701892926   -0.58486276621899
H         4.10299337282359    0.56467593924782    0.67242548026299
H         4.68956302525022    1.74818638044159   -0.50616108987103
C        -2.21999564524467    2.46165393995540    7.51280470432360
C        -2.97684896895259    2.76785430027419    8.63723373969942
H        -2.96952416611826    3.77446323695187    9.03358234424189
C        -3.75200782743368    1.79694772033387    9.24506801042864
H        -4.33300665038512    2.03740153650776   10.12300112444052
C        -3.79734263909490    0.51783377277514    8.70357717806501
H        -4.43234300571124   -0.23280030725389    9.15257666823876
C        -3.01548769798269    0.19209492866797    7.61630413495179
H        -3.02363709378652   -0.81833157511937    7.22812570142798
C        -2.16727393712313    1.13764973221043    7.02138985468771
C        -1.27049705117906    0.77116546731170    5.93794181669427
H        -1.33828699435766   -0.29280386326656    5.67653592218253
C         0.98174397549348    0.89468289473064    6.91012108708777
C         2.33267169434997    1.15706129277686    6.63644966513651
H         2.57762707457719    1.57209408179104    5.67118122813375
C         3.31358971226957    0.87895713555131    7.56545593383202
C         2.95460410128682    0.33268645443221    8.79441980377466
H         3.72016914201951    0.12168343725045    9.52824637888674
C         1.62911887521640    0.04593594149732    9.08476440322394
C         0.65202127930730    0.31599985958970    8.14141267353647
H        -0.37973722009390    0.09104762460573    8.36770053390263
C         4.75650823382849    1.15569281594512    7.26157588515566
H         5.33085296608506    0.22971736627361    7.27150744392144
H         5.18322522115969    1.81950023143821    8.01249292335539
H         4.86071778964636    1.61850529902495    6.28404774178259
C         1.25201869806159   -0.57356077304061   10.39919909140159
H         1.26526042192427   -1.66126533679939   10.31785222486507
H         0.24990034746904   -0.27079524492588   10.69562445875021
H         1.95376303557699   -0.28604724251423   11.17905764613739
C        -2.21722230694769    5.28377355932171    6.84593641433418
C        -3.59079399097451    5.40648495239166    7.04438552625151
H        -4.21012888235663    4.52281878937468    7.10309113775933
C        -4.16682282899440    6.65456833811767    7.19658735485635
H        -5.23101734002624    6.73560715356862    7.36714697185624
C        -3.38731947180575    7.79780271070507    7.13034472633823
H        -3.84082355815250    8.77060614214057    7.25006875910684
C        -2.02399023566173    7.68714618393068    6.90919267669446
H        -1.41148912286810    8.57561580694750    6.85292905662447
C        -1.44421906087693    6.44134960552211    6.76187256175063
H        -0.37882823842569    6.35554584164376    6.59346250087950
C        -3.38747768344192    2.73751763423742    2.12254503484344
H        -2.94327099113828    2.11436003463331    1.34220418873317
H        -4.47318669231152    2.74898863326362    1.97603475983649
C        -2.81319949643425    4.14555466661073    2.06027921566875
H        -3.26990198440586    4.76822429899301    2.83628511999042
H        -3.01606886823124    4.61022227233661    1.08952689772207
C        -4.30142106866317    2.75471358647121    4.78320641644410
H        -4.28927746766663    2.30357962436502    5.77384900709792
H        -5.27903743438785    2.59972268734718    4.32535598818999
H        -4.10459401730156    3.82115082498524    4.87991153314972
C        -3.73684863442687    0.31276782521491    3.55828665257293
H        -3.09506822515178   -0.30388854521141    2.93535238801878
H        -4.72645110518878    0.40196683011853    3.10891275702014
H        -3.82085322714499   -0.14628418834229    4.54173519702098
C        -0.75820757342930    5.98463511829825    2.44931104434953
H        -1.10338093756940    6.35550501190306    3.41424191168199
H        -1.32105474373081    6.46827309240230    1.65120911642290
H         0.29938901101558    6.21427924782059    2.33540816208836
C        -0.36267567297225    3.86291664209223    0.66103204233114
H         0.72484969740388    3.91133687939817    0.66864826476604
H        -0.76193491723694    4.61969950503007   -0.01448179244976
H        -0.66134436328843    2.87162557651922    0.32863230104174
C        -0.25446943601295    0.91270160252562    2.60688208415527
H        -1.22853335028623    0.83921602196561    2.10747733393417
H         0.39742799757615    1.40100318712606    1.88379687558878
C         1.71240454403338   -1.12376210180877    4.14073010578948
H         2.48650053036622   -0.36693260129652    4.08955433049892
H         2.18992176395058   -2.09367562775499    4.03103919269485
H         1.28775029585988   -1.07593354386200    5.13749772365128
C        -1.03100587122621   -2.12049095537733    3.17393688350775
H        -1.56101789257037   -1.88678935312033    4.09107887967035
H        -0.61700283268301   -3.11799713099605    3.28571424821479
H        -1.75799355391462   -2.16593540964114    2.36775420919946
C         1.11004155230546   -1.45150511552943    1.12846799452798
H         0.38053422087487   -1.38392942519141    0.32704383112067
H         1.43417091824594   -2.48564009860165    1.18706731647529
H         1.96758279155784   -0.85516404855929    0.83831525524879

