78
CSD_code = HAWDEO | q = 1 | S = 0 | Stoichiometry = C25H49NP2Rh(1+) | MND = 4
Rh        2.06619937283628   12.69448125624302    8.47260274300324
P         2.86483963842789   10.61942222314532    9.16645982851630
P         1.55003859426238   14.89336726310313    7.89587495131098
N         2.93237984516034   12.43769403411315    6.70139117470506
C         1.11599076566968   12.87202227141900   10.05132730543315
C         0.34143278303532   12.94023004154868   11.08234111833507
C         4.18821869284038   12.71457649014628    6.35244101909927
C         4.67333373875895   12.49795973030075    5.07413698680719
C         3.82416590607995   11.97167889750189    4.11313685879695
C         2.51768672227181   11.68135811087720    4.47768417858835
C         2.11684253623707   11.92888396665557    5.77838698941253
C         4.15179965312903   10.79815059713395   10.50420504551933
C         5.22542202849900   11.74136687317442    9.96530943817483
C         3.58005965084930   11.36599179085823   11.79771269311957
C         1.52624772072461    9.59445584101943    9.96770597486294
C         0.26532387757132    9.59635014453540    9.10370568849667
C         1.90094962056276    8.18889668066156   10.42086672316649
C         3.77503997526444    9.55127906256397    7.90852818717694
C         2.78888680802635    8.88108849722639    6.95167208155952
C         4.75696452025009    8.51586569624711    8.45368202307068
C         2.56365033088169   16.10026271330785    8.89256002899138
C         2.23171215204734   16.04936182301103   10.37932063729792
C         4.03116672464387   15.73068951414246    8.68675734205162
C        -0.21234959113084   15.33887556218801    8.32123694233537
C        -0.68646850991188   16.73989289321610    7.95518198726509
C        -1.17337294025512   14.26436952706391    7.81295730444135
C         1.90624267791011   15.46099764968763    6.13448901023120
C         2.12129140944876   16.95716963197760    5.91422583525933
C         0.83843432285174   14.94034433761406    5.17213338830909
H        -0.26867272191985   13.80284217251009   11.30458555890989
H         0.25885077533916   12.14786371164960   11.81110063607279
H         4.82888704007003   13.12507895285646    7.12289874068655
H         5.69781005537937   12.73885747418023    4.83987993054146
H         4.17042304819160   11.79199691974650    3.10769138094681
H         1.82035695835390   11.26961292047308    3.76597607147649
H         1.09896236026016   11.71014835472712    6.09312381996473
H         4.58442422075340    9.81533101799959   10.71119878509272
H         5.69580398396170   11.34869828185904    9.06587469272280
H         4.76344212567341   12.70444602209009    9.73274069032790
H         6.00146765995456   11.90620428443839   10.70995744531724
H         2.89898499658355   10.66941092364613   12.27945299311360
H         4.39108351382377   11.57008285268428   12.49423607037199
H         3.05580098295005   12.30044548662830   11.60151255818364
H         1.30060636804558   10.19079008198849   10.86019327876163
H         0.09117299206672   10.59769479899738    8.69609516461324
H         0.33922687465251    8.88894770337740    8.28315381259828
H        -0.59920807987178    9.32026839184023    9.70398107873388
H         2.79790296035860    8.19507353677796   11.03599485743366
H         1.08916074511228    7.77848845132011   11.01971169441765
H         2.05280754188048    7.52197840543971    9.57696362919365
H         4.36021001018186   10.27892613809590    7.32813021474135
H         1.98389931928751    9.55625259704524    6.66953990392130
H         3.30353791248362    8.56863675185351    6.04404413558402
H         2.35428118683479    7.99490768640382    7.40569982189632
H         5.60525234569926    8.97867878406606    8.95015701397495
H         4.28133384662319    7.82470946197241    9.14162403511650
H         5.14583703009763    7.93643913069280    7.61723169476719
H         2.37561220510748   17.11181032257014    8.52167837520375
H         1.23431682608391   16.42885237354323   10.58487154335953
H         2.30729097988427   15.02700819911009   10.74870372342360
H         2.93953952878943   16.66479049874280   10.93132312471179
H         4.32350401404022   15.79509379252535    7.64048369139490
H         4.67764395391629   16.39107505003298    9.26116506655485
H         4.18922476943875   14.70732568043554    9.03645332282957
H        -0.19700668109316   15.26116230477051    9.41511035757494
H        -0.00015821924091   17.50068510783005    8.31991476522585
H        -0.80809195320325   16.85501933256744    6.88189643813091
H        -1.65729680251357   16.91942502548759    8.41490673697587
H        -0.74654943375995   13.26972785882787    7.97699965468406
H        -2.11648213387805   14.32113473812968    8.35270853455026
H        -1.38877777832547   14.38589882484401    6.75563254333962
H         2.85201736075014   14.95809291628658    5.88714335225298
H         3.01503799465846   17.31984904869284    6.41411323613771
H         2.25091054743371   17.13281387015872    4.84698607903111
H         1.27133478668345   17.54469557309417    6.24495923462642
H         0.54622405163747   13.92055725384480    5.41308936761374
H        -0.04640983753802   15.56998863831608    5.20288419706666
H         1.21754074137219   14.95299917412783    4.15119346046035

