77
CSD_code = HAWFER | q = 0 | S = 0 | Stoichiometry = C26H41CrO7PSi | MND = 9
C         2.17905513466653    3.59306954570390    4.72906865009255
O         2.06503635071567    2.81725884497584    5.84068047261180
Si        2.53818763877568    2.70962830099118    7.39760817000064
C         1.35325202620285    3.63868890799049    8.57554567651446
H         0.31257694532023    3.41062565437624    8.36709753692009
H         1.47742879838347    4.71692023610361    8.51383950136716
H         1.54629159176426    3.35855046159736    9.60628040070159
C         4.27868870010654    3.44186277594547    7.71516184644307
H         4.44901571706822    4.31814229612089    7.09483422933897
H         5.07842835545881    2.73857454142043    7.50380804029643
H         4.38936372203988    3.74972704486849    8.74994934173013
C         2.44339126609296    0.81388901387143    7.71939210951244
C         3.31994705947241    0.03110704157029    6.73782079696532
H         4.36747513758215    0.31264608749044    6.83186219186424
H         2.99488993542979    0.20699362218030    5.71489033283387
H         3.24288552998519   -1.03769942768419    6.93568393616523
C         2.90960012074639    0.50664917528827    9.14353614238917
H         3.93367057948180    0.83849316814986    9.29872402643392
H         2.86630461682592   -0.56503013162460    9.33492016905868
H         2.27673258014519    1.00492034229594    9.87354607563786
C         1.00322095078416    0.32102675216311    7.55489456720671
H         0.65637277755104    0.49290217096210    6.53925933256467
H         0.33432249307420    0.83128265394421    8.24359821748669
H         0.94561040436437   -0.74839784107749    7.75552748800798
C         1.16499478967605    4.52830430504968    4.42164755444052
C         0.01938083611139    4.67815359700183    5.38987005224974
H         0.43847333179112    4.78635026175568    6.39287464609573
H        -0.55898435282810    5.57366182190938    5.17051505747320
C        -0.92477213560252    3.47475160603823    5.37956780489265
H        -1.70581321018741    3.60936724733383    6.12501356588343
H        -0.38086847746883    2.56270915355927    5.60260575749849
H        -1.38795567612489    3.36529889805309    4.40303781821717
C         1.25971747645173    5.26861604605651    3.21524777655573
C         0.19145227212023    6.25574077748388    2.81376939295620
H        -0.79463757365062    5.82793212757993    3.00200157980385
H         0.27285887165853    6.43053694135073    1.73898935240601
C         0.32039650206405    7.59526426645329    3.54754241961853
H        -0.44820465079923    8.28315922909727    3.20217982167849
H         1.29212668937536    8.04857763384768    3.36272464657974
H         0.21408453832813    7.47355210763228    4.62292814225886
C         2.37373391415457    5.09933880587454    2.37377502207515
O         2.47768569288016    5.82358007059743    1.18052808121697
C         3.24294175146000    7.01281722526743    1.26449020422408
H         3.49003194779425    7.29402722285381    0.24129118914456
H         4.16505909046502    6.86236440624534    1.83357333979412
H         2.66902772974470    7.82171983723262    1.72827368658815
C         3.47738031437098    4.26999113147180    2.75389501086638
C         4.63316742647388    4.13919147633866    1.95446667493398
H         4.67808880420498    4.66319229232011    1.01138179579583
C         5.67803186875472    3.34319079204322    2.35032725204931
H         6.55247237868086    3.25407145930871    1.72396447121249
C         5.61419107902785    2.64416362683665    3.55814604755132
H         6.44231530838440    2.02305945857642    3.86446027785941
C         4.49245286898191    2.73031744344242    4.34839500675557
H         4.43194684362529    2.17707437452030    5.27039058876985
C         3.40351601851075    3.53618441571724    3.97578577923446
Cr        1.47775305162626    3.08842322489610    2.73634561295389
C        -0.22090270472925    2.81927432720375    2.18764132778728
O        -1.31400465369367    2.58570191656566    1.86563996921288
C         1.00394487748333    1.41914312422233    3.22989830309698
O         0.63139959687229    0.37187339116169    3.57219225755772
P         2.23098199298085    2.18733955264172    0.78456839118059
O         2.67445640288163    2.96085028213112   -0.56073374722445
C         1.72350830123858    3.84931289547494   -1.13351913869451
H         1.95616279210586    3.91629780790095   -2.19651214850861
H         1.80549147125442    4.83280091364470   -0.67120039240119
H         0.70647054576871    3.47348124383749   -1.00009228685773
O         3.58813271025396    1.31062945029134    0.79292139898794
C         3.73137277071556    0.31780542163004    1.79375954716559
H         4.74191421474924   -0.07767522079890    1.69598561306397
H         3.00309047302469   -0.48382406088458    1.65331151649155
H         3.59318595964282    0.74257937664698    2.79081706150672
O         1.10641504110037    1.13481125907781    0.24659057525158
C         1.34727894090954    0.33082148552987   -0.90799014083525
H         1.20120780223311   -0.71476039765983   -0.63370147045681
H         2.36430793105041    0.47621105360444   -1.27972650439346
H         0.63099178205579    0.60281165638088   -1.68498481370716

