93
CSD_code = HAWHUJ | q = 0 | S = 0 | Stoichiometry = C48H30F10NiO2P2 | MND = 4
Ni       11.11644861862166    0.00000983215710   11.11711794527853
P         9.56744619928834    1.42685878675626   10.45136347812245
O        12.25880728130292    1.41519431581374   11.59487803767651
F        12.21192017865386    0.57702674526162    9.02345652384561
F        14.14109528605108    1.43148754268015    7.25987458822725
F        16.07937031958266    3.18958987246439    8.10071733527671
F        16.04713292005814    4.07596491995747   10.68218298315475
F        14.16214321607394    3.21082713768678   12.42486769476495
C        13.14202660786347    1.84874217799343   10.77233271839452
C        13.19300788615907    1.44783978164510    9.41972896000278
C        14.15335160894194    1.87050145804680    8.52583128958158
C        15.13025448540788    2.76381447663976    8.95007980759860
C        15.11144687723528    3.21130970395345   10.26907268183826
C        14.14673709735383    2.76715711370243   11.15453476784088
C        10.11186077268307    3.15481909644824   10.23564042239978
C        10.80523755160189    3.43924046214160    9.05935865112947
C        11.35271809184722    4.69047575944397    8.85359116995833
C        11.21373959325588    5.67429214185171    9.81967606946918
C        10.50917719326816    5.40389297045004   10.98002212100096
C         9.96302613881576    4.14967494906258   11.19315000941525
C         8.23456640302194    1.44566266342955   11.68832376636734
C         6.94948758323977    0.99539682514487   11.40512988882701
C         6.00728808798748    0.91547614435970   12.41616099777218
C         6.33903336615094    1.27641531653752   13.71138751194495
C         7.62425037570283    1.70670516101498   14.00321797361653
C         8.57230110970725    1.77960145915374   13.00058239258768
C         8.71751594454060    1.15474583897073    8.86696272593190
C         9.01438043432517    0.05104721774917    8.07812345483704
C         8.36325672016465   -0.12578320877777    6.86866456017554
C         7.42319347274605    0.79741836467108    6.44424680725914
C         7.13342415245874    1.90621214763632    7.22608956610556
C         7.77929117238888    2.08958252492185    8.43340964630464
H        10.89998491925648    2.67593950148011    8.29878316487472
H        11.89013892326780    4.89847357002679    7.94019755686239
H        11.64899364164670    6.64990132464436    9.66513141251300
H        10.38781163067405    6.17191711023725   11.72941738448766
H         9.41113629599522    3.95614172644487   12.09997704538525
H         6.68825506523718    0.69950604897243   10.39941086240104
H         5.01205930496754    0.56197027796790   12.19126018581191
H         5.60274237609946    1.20506732319455   14.49738340842964
H         7.89120089309913    1.96328213403758   15.01720668555235
H         9.59411340922046    2.05289696943549   13.23184944370540
H         9.74772888898834   -0.66470963464775    8.42002334095520
H         8.58990613722130   -0.98711298761816    6.25874491932602
H         6.91453768497174    0.65751101865894    5.50196833743858
H         6.40328579044786    2.62874661326257    6.89200225613896
H         7.56214357386495    2.95504157975077    9.04534375686433
P        12.66544039627400   -1.42685885413830   11.78285043255501
O         9.97410036439307   -1.41517533907125   10.63934329625928
F        10.02096727152232   -0.57704571133216   13.21077440364604
F         8.09178970052304   -1.43154977919901   14.97433582436442
F         6.15353426115006   -3.18965555041744   14.13345663503446
F         6.18579011215491   -4.07599033435279   11.55197677552933
F         8.07078141671620   -3.21080840253714    9.80931386183068
C         9.09087897647330   -1.84874239524506   11.46187627288391
C         9.03988820467074   -1.44785982037037   12.81448538202031
C         8.07954335262217   -1.87054359692224   13.70837179617535
C         7.10265008028131   -2.76385860262882   13.28410468297289
C         7.12146674362290   -3.21133317900328   11.96510469993992
C         8.08617697796079   -2.76715854547221   11.07965416121618
C        12.12103200102614   -3.15482030953177   11.99858037204372
C        11.42766538604457   -3.43924343457222   13.17486794927897
C        10.88019157230553   -4.69048106225174   13.38064111725598
C        11.01916735129558   -5.67429836470296   12.41455705917405
C        11.72371814900950   -5.40389692122179   11.25420475853176
C        12.26986124220933   -4.14967659024579   11.04107038931433
C        13.99832935759156   -1.44566359618310   10.54589975589730
C        15.28340445099420   -0.99539077312788   10.82910121633644
C        16.22561140453568   -0.91547140499377    9.81807647523555
C        15.89387885226106   -1.27641957788429    8.52284976388673
C        14.60866583810990   -1.70671725120511    8.23101143455178
C        13.66060687022079   -1.77961108768111    9.23364012491443
C        13.51535734269783   -1.15473216092669   13.36725594391353
C        13.21847406865685   -0.05103264800799   14.15608599005070
C        13.86958424286387    0.12581265572988   15.36554947380192
C        14.80965386703784   -0.79737523171197   15.78998110865399
C        15.09944215684956   -1.90617031822193   15.00814807463768
C        14.45358832056342   -2.08955574571512   13.80082327355420
H        11.33292246755837   -2.67594343918460   13.93544421591002
H        10.34278147332832   -4.89848037802842   14.29404041745331
H        10.58392103601920   -6.64991031465510   12.56910801328104
H        11.84507844186211   -6.17192072461687   10.50480829593924
H        12.82173921334378   -3.95614165189700   10.13423672496179
H        15.54462689322325   -0.69949314090279   11.83482072961169
H        17.22083807951957   -0.56196367419453   10.04298424706147
H        16.63017791844599   -1.20508074023036    7.73686037950836
H        14.34172443656949   -1.96330112841996    7.21702227080599
H        12.63879620137682   -2.05290427009042    9.00236450448276
H        12.48511683960003    0.66471082511616   13.81417687718056
H        13.64291708990275    0.98714193728667   15.97546328504634
H        15.31830236739424   -0.65745428017890   16.73226110194593
H        15.82958890576370   -2.62869223640930   15.34224448677533
H        14.67075302222536   -2.95501512574439   13.18889563739308

