30
CSD_code = HAWROM | q = 0 | S = 0 | Stoichiometry = C12H14Cl2HfSi | MND = 12
Hf       -1.07665184330018    1.78963651984403    2.50964036553463
Cl        0.42281873990100    0.18015678018132    3.22081770020806
Si       -1.07655386287093    5.09654024718739    2.50936037535238
C         0.34927005718138    6.15200533277518    3.19002444457246
C        -1.66065946028838    3.78136373003908    3.73846657354924
C        -0.80014435653488    3.03351635977951    4.59180625389825
C        -1.50279234634248    1.89663927481305    5.05080106965404
C        -2.77379117244614    1.89486358174104    4.44675053377567
C        -2.86421377971682    3.03073472874849    3.61074862480667
H         0.15582091992474    3.37199481742102    4.96999391876075
H        -1.16194037993911    1.20532164829750    5.80823752176901
H        -3.57491855191297    1.20213246982072    4.66163614311308
H        -3.76233092282625    3.36650224709228    3.10858412252992
H         0.72183850767877    6.82713723894536    2.42754764773620
H         0.01289640983643    6.75400757221262    4.02708382508515
H         1.18268814719814    5.54737603371207    3.53148613387780
Cl       -2.57492817114406    0.18006627925517    1.79596645019120
C        -0.49252832004620    3.78119682694534    1.28036145725972
C        -1.35306128639464    3.03334342691406    0.42706330480792
C        -0.65052463660185    1.89629898097902   -0.03172637962167
C         0.62048790721812    1.89451088559481    0.57233170450387
C         0.71103886880315    3.03060169136589    1.40803754499703
C        -2.50229112893061    6.15204348387098    1.82857385314476
H        -2.30889465104685    3.37197188708560    0.04865286663322
H        -0.99125734373416    1.20516019464626   -0.78939557690238
H         1.42172156003376    1.20197285054566    0.35717923575121
H         1.60926664733661    3.36654313292800    1.90990037103179
H        -2.87481101215106    6.82722580350063    2.59102596599244
H        -2.16590484116211    6.75399422281006    0.99148048841985
H        -3.33574969772242    5.54744175094790    1.48716345956774

