80
CSD_code = HAWSAA | q = 0 | S = 0 | Stoichiometry = C29H41Cl2N5O2Pd | MND = 4
Pd        3.99508277915789   13.10425028763269    3.26085336606683
Cl        2.08274403489874   12.85465559453576    4.37866100812573
Cl        4.02017920661349   10.94036092898676    2.64388470064030
O         7.22401199760716   13.99578763745219    5.68431462278805
O         4.01259159524590   13.35916566569628    0.60906577591864
N         4.32554819463885   14.99682223204530    3.97496299071241
N         5.29412447165514   14.96399265254913    4.93777173936241
N         5.78645109024099   13.23455791536170    2.55779870893689
N         4.87687971598987   11.49482048305593   -0.39735693021771
N         5.98433576385163   10.72724597924594   -0.52868448069424
C         2.29620486920625   15.58894873638257    2.08474207921911
H         3.23229903683926   15.68193347446538    1.53398267154550
H         1.48952023192651   15.95881179778073    1.45671322435264
H         2.10236132806798   14.52855669345087    2.28769862439361
C         1.04208774225667   16.19077204868865    4.17037048596142
H         0.93323527002864   15.14034963826083    4.43002178802913
H         0.19417596737044   16.49329260699993    3.56164992463862
H         1.04164237336462   16.77988034815046    5.08417179825412
C         2.52144833919124   17.88346250811975    3.04583738956522
H         2.51869224297530   18.49631838316757    3.94320455542471
H         1.70474294230178   18.21064255282822    2.40780450838311
H         3.45801708516826   18.04692463452749    2.51670481371862
C         2.34315510069227   16.39448173549021    3.38404507544986
C         3.49610380541785   15.97803273694060    4.25094037767650
C         3.92413656107645   16.60843819441211    5.43948825904035
H         3.43823432537833   17.43579345426238    5.90979240346979
C         5.04828179380601   15.95749136197738    5.87629159640340
C         5.81932291942603   16.26650261446989    7.13277235915055
C         5.13888095623540   17.43614146956591    7.85804496890784
H         5.14260250826763   18.33484978432061    7.24595353733396
H         5.68313912997012   17.65081712359281    8.77425445924179
H         4.11519868078429   17.18857724235692    8.12595764722147
C         5.79336565511655   15.05143054967357    8.07009217540323
H         4.76591244913253   14.75382491912343    8.26831814638431
H         6.26765162918960   15.31096023620480    9.01309210819269
H         6.32629148279586   14.21023549451342    7.64107683445717
C         7.25983238014841   16.68999933940628    6.81320070786109
H         7.84282717111453   15.86093848447663    6.42779448290720
H         7.74008624570767   17.04313554869869    7.72199290162516
H         7.26406586989978   17.49863288732573    6.08430286243845
C         6.42900876322716   14.14842254912452    4.78331318429769
C         6.73599637268938   13.55776497372838    3.44051721534631
C         8.08309385748601   13.32308339489763    3.15968923045367
H         8.82260469431567   13.56373007578922    3.90704348715876
C         8.43036680540871   12.78410933986152    1.93396808892449
H         9.46544772954922   12.59976394833289    1.69359009190947
C         7.43342048365717   12.48276434595969    1.01418537585506
H         7.66117233288392   12.05786152058345    0.05219405677158
C         6.11123467142014   12.69999337129571    1.37065783752892
C         4.90151819386763   12.52863854810314    0.50108793631203
C         1.72466475669957   11.55059944790314    0.11388657861562
H         1.75416730815157   10.56529021850297    0.57274333485803
H         0.68569815773455   11.84288220979666   -0.01803980196042
H         2.18691888839709   12.25866177564914    0.80028378909108
C         2.45361600803554   12.92019411564928   -1.88265724300619
H         2.95241951871391   13.62970906955679   -1.23178318690765
H         1.43560505473551   13.26416362007865   -2.04728098993636
H         2.96819112456294   12.89227171075022   -2.84182885287198
C         1.60823175387663   10.60412861512907   -2.17580716947804
H         2.04722402144116   10.55711802268134   -3.16991460347598
H         0.59835054854169   10.99582250672396   -2.27033930357580
H         1.54334307888335    9.59930720753263   -1.76655314775052
C         2.42328818690345   11.52086056601199   -1.25218625565024
C         3.81903703034668   10.97024398806717   -1.13698395212055
C         4.32303062902027    9.84942793259029   -1.73492420934118
H         3.80898772512133    9.16990225612459   -2.38061335221032
C         5.67873912638992    9.73997206437597   -1.32605144457736
C         6.65731597007388    8.66778696988916   -1.69698132368764
C         6.16503015967956    7.34707821609423   -1.09120718178960
H         6.09048805510708    7.43544631042435   -0.01004536959536
H         6.86002407144497    6.54502722473480   -1.32931626157455
H         5.18526788488776    7.08403468001787   -1.48232797368743
C         6.72886382208545    8.54610807649749   -3.22354968467661
H         5.76295281909975    8.26906421746039   -3.63784241432471
H         7.45269584330341    7.78330479141067   -3.50104806646911
H         7.03563428054797    9.49120519687379   -3.66684905323947
C         8.03979254270462    9.00709144631898   -1.13806342416312
H         8.41123729261150    9.92749466415805   -1.58153843682017
H         8.74065201653135    8.20548391076158   -1.35918425837530
H         7.98310347715933    9.14285092436175   -0.06192751414251

