23
CSD_code = HAWTEG | q = 0 | S = 0 | Stoichiometry = C8H6CuIN4S3 | MND = 4
Cu        3.04879876482025    3.86981988689622    5.28542939395932
I         0.74811001528430    3.87318318261028    4.39301524462425
C         4.74108395283154    6.11216170734782    6.24719588250464
C         5.58207917594474    7.79069239552522    4.99265904787075
H         6.17357130510941    8.69461241759465    4.96828539719143
C         4.97869170527348    7.25538323153655    3.85727927978990
H         5.05770573398621    7.72552036765289    2.89256881347730
C         4.26929488360406    6.08378430796605    4.02734156183572
H         3.76610630181186    5.59302867247438    3.20578900654850
N         4.15345602097664    5.49437314973971    5.22249163854486
N         5.45578509430794    7.21641968301561    6.17468654434209
S         3.40526945314513    3.86935519944514    7.86087265415402
S         4.61702769344402    5.52624794563949    7.90832010435677
C         4.74184965004157    1.62755813473417    6.24670383912682
C         5.58424416629801   -0.04972828809859    4.99143114622727
H         6.17798480126149   -0.95215705046243    4.96635331342370
C         4.97681814515474    0.48315732231556    3.85706677053649
H         5.05478199148824    0.01247503951404    2.89253556440486
C         4.26466359067340    1.65297863004729    4.02793637613241
H         3.75803468205899    2.14168497169166    3.20727138779358
N         4.15021133338090    2.24302005821132    5.22289613459025
N         5.45916606755349    0.52504539022517    6.17334939680488
S         4.61946547154961    2.21408364437737    7.90772150176027

