105
CSD_code = HAWVAD | q = 0 | S = 0 | Stoichiometry = C50H42F2N6NiO4 | MND = 6
Ni        8.68330916633915    5.77110515814686   12.34994142468525
O         7.35020572737333    5.69736184458491   13.61099897036167
N         5.99726248260556    7.73597962152488   16.05147106266854
O         7.63066454985866    4.13305690170048   11.32464225890786
N         9.76220257868938    7.28366502530907   13.45535453456362
C         7.93939077529409    7.68539189184739   14.91717801555744
N         5.97297531951761    6.67918083507356   15.19582837228923
C         9.22614554099539    7.97504403020729   14.41694854877676
C         4.83294940110085    5.88032485220936   15.11830960971728
C        10.01279165520223    9.07890209785387   15.03197670196914
C         7.13526173858989    6.59526421313026   14.47451930553382
C         7.14737140764169    8.33497455397296   15.91335706106310
C        11.02977421708918    7.61638702401122   12.96297911615628
C         4.88278453617851    4.60098717117068   14.57586012280191
H         5.82382632205236    4.21346440130621   14.22241855690155
C        11.22935829613723    8.77522158496622   12.21237520503995
H        10.40159968101324    9.44694232448754   12.04371894549823
C         9.77426821132462   10.40216530536001   14.68426384166909
H         8.98195432584587   10.63747683365949   13.98747110337285
C         7.46996625604070    9.51859425233007   16.75327835856362
H         6.67754271482536    9.64789823065777   17.48542710613123
H         7.54144089655258   10.41896112997444   16.14570493547945
H         8.42038056196879    9.38142448523085   17.26554660460337
C        11.03710976274006    8.77850081545618   15.92071168528518
H        11.22489525846737    7.74834793527920   16.18606851595570
C        12.09629324465749    6.73968301774786   13.15567033272680
H        11.92790513529676    5.84301336816717   13.72976470661054
C        12.46592403176647    9.05281696945260   11.66346930942482
H        12.62804834046772    9.93889447072360   11.07069070628983
C         3.72678656712186    3.84502732304555   14.50247779716968
H         3.76673384287636    2.84470636719827   14.09364146726659
C         2.52359565820092    4.34984389270163   14.96550809268304
H         1.62518756976774    3.75436470518325   14.90081089985821
C        11.55957166190302   11.11071370228108   16.12024555731007
H        12.16050311615379   11.90125369443363   16.54418441460394
C         3.62752267007635    6.38289241387018   15.60282711795159
H         3.61419120537831    7.37038922236544   16.03380764621060
C        10.54642755228415   11.41349088180727   15.22661728528116
H        10.35770056884811   12.44072865750559   14.95104036392500
C        11.80265074063894    9.79266071330662   16.46712566828996
H        12.59316170402890    9.55270920670462   17.16268731221729
C        13.33666196513981    7.00990743084574   12.61525344591964
H        14.16952998339315    6.33806488415039   12.75195353716702
C         2.48098816961757    5.61908193987249   15.52021930202112
H         1.54709191627549    6.01807435340650   15.88578145440215
C         6.87755348581435    3.30364910024617   11.77596327814878
H         7.15966238419607    2.68934605296392   12.65056281495778
C         5.52038320691554    3.00611215519829   11.22676264006984
H         5.36290986456176    1.93145416163145   11.17090185386721
H         5.39120189404059    3.45596607716495   10.24560770474073
H         4.77737878198834    3.41854784177007   11.90987949783271
F        14.72065769347633    8.43753409901090   11.34831352621224
C        13.50503635174273    8.16647977692757   11.87551284023104
O        10.01644817419198    5.69730378051124   11.08891996392851
N        11.36944829916497    7.73597976004893    8.64852161611967
O         9.73598409296620    4.13327944762402   13.37541147328588
N         7.60455024568681    7.28358454888880   11.24467972042286
C         9.42732696919995    7.68537512610257    9.78281751570057
N        11.39373553730760    6.67915368131552    9.50413647331426
C         8.14058875074595    7.97498780728468   10.28308411362274
C        12.53377606313082    5.88031657709902    9.58166162966814
C         7.35391335822282    9.07885230411996    9.66810876480526
C        10.23144951518753    6.59522593727975   10.22543873422528
C        10.21934501643977    8.33497860677810    8.78664911747551
C         6.33693978212166    7.61627832075971   11.73700104971670
C        12.48401224671568    4.60105566312900   10.12430035858483
H        11.54301265045573    4.21357409915904   10.47790444320237
C         6.13728881385795    8.77507418950465   12.48764463650733
H         6.96502709441034    9.44679176027940   12.65641066189830
C         7.59243727871299   10.40210137714807   10.01587384494697
H         8.38476684767021   10.63738468310100   10.71265763139949
C         9.89675576624684    9.51862115562215    7.94675919672600
H        10.68918068198338    9.64794079274613    7.21461435321171
H         9.82528455378439   10.41897019868108    8.55435874233029
H         8.94634022684542    9.38147121249048    7.43448772800757
C         6.32958265623982    8.77847673600645    8.77938042278726
H         6.14180533297832    7.74833372836556    8.51397992289208
C         5.27043917073276    6.73958811162011   11.54415664298039
H         5.43888555232191    5.84295953676081   10.97001740568085
C         4.90066883625156    9.05263771935213   13.03644639544064
H         4.73848746077990    9.93868494372166   13.62925479526828
C        13.64003143004864    3.84513677506640   10.19769073465939
H        13.60015618098290    2.84489559678449   10.60673110761891
C        14.84317164867555    4.34990631566260    9.73449007043806
H        15.74160951500050    3.75447713719769    9.79924120415336
C         5.80709692188634   11.11069348690526    8.57996264004719
H         5.20614581795877   11.90124623137733    8.15607651657583
C        13.73915280377542    6.38284433395656    9.09696782758880
H        13.75243332929837    7.37029652149203    8.66587903551814
C         6.82025862167952   11.41344373510483    9.47358027581573
H         7.00898095770480   12.44067093685322    9.74920024580661
C         5.56401909599850    9.79265396065237    8.23302982979661
H         4.77349687859560    9.55272592658703    7.53747266384398
C         4.03002070942469    7.00977494158177   12.08447726673387
H         3.19716594467474    6.33793988898592   11.94765944815335
C        14.88570880490876    5.61906278748421    9.17958917848640
H        15.81957108536833    6.01803802942237    8.81391779582282
C        10.48885331944129    3.30356156460008   12.92424893696238
H        10.20677477573936    2.68949137644779   12.04947295766492
C        11.84597631818315    3.00584396588108   13.47346526478734
H        12.00324207430928    1.93118277287209   13.52955296013010
H        11.97529880567269    3.45588800346786   14.45450416880495
H        12.58907487527112    3.41797680629175   12.79025261999163
F         2.64590911186796    8.43733101930951   13.35136403161078
C         3.86157930913099    8.16630708137467   12.82426532789933

