37
CSD_code = HAWXUA | q = 0 | S = 0 | Stoichiometry = C16H10F6N2O2Pt | MND = 4
Pt       -2.13857991474143    1.65969508207551   -8.80986621313328
N        -0.82944454006035    2.46141382094658   -7.45571462063650
C        -0.67415234879774    3.79360106007153   -7.47403875522013
H        -1.29904203341940    4.34578413839858   -8.15989429071389
C         0.22884123836237    4.47615716643496   -6.69163619525152
H         0.29493918934318    5.54878974064761   -6.76346386787107
C         1.04429295843043    3.75233030309501   -5.82557317925339
H         1.77621026833288    4.24729755596855   -5.20613358477264
C         0.88209098522403    2.39210710721935   -5.77682857341575
H         1.47720877207986    1.78739018040695   -5.11138502290771
C        -0.07517134439630    1.74596976083641   -6.58662755576176
C        -0.21952852348820    0.33584475552987   -6.41204275422200
H         0.45127104451912   -0.13505987914910   -5.71202785840225
C        -1.15503337163560   -0.44129812903208   -7.01822517554811
O        -2.05231880563386   -0.13122605488096   -7.87754267443750
C        -1.17869351679089   -1.91889298400916   -6.61316781001239
F        -1.66345116757973   -2.09368192179392   -5.37100260639009
F        -1.93527546700159   -2.65542155529348   -7.43160342459606
F         0.04635276575237   -2.47083321397558   -6.61509165582777
N        -3.44707926638993    0.85775058690171  -10.16426817092057
C        -3.59635280901352   -0.47513516463795  -10.15105752261822
H        -2.96657564872175   -1.02742607136367   -9.46976275632919
C        -4.49946723209396   -1.15824370618092  -10.93287577152013
H        -4.56067023827011   -2.23145223956149  -10.86545708152520
C        -5.32157976003972   -0.43420405100445  -11.79243210055364
H        -6.05386006729237   -0.92967809188964  -12.41103635810757
C        -5.16510838905380    0.92687838748512  -11.83640545133651
H        -5.76516774681193    1.53180835210339  -12.49720160970210
C        -4.20714342397663    1.57355898684723  -11.02792641412422
C        -4.06759680412816    2.98469195724670  -11.19838352785319
H        -4.74318321524119    3.45628795867077  -11.89330730640064
C        -3.12994211016142    3.76174717456546  -10.59539752853963
O        -2.22713485646355    3.45083129249356   -9.74215318575571
C        -3.11097906741887    5.24036660127142  -10.99694481684908
F        -2.63751635106390    5.41873110498212  -12.24299580815325
F        -2.34768193579789    5.97545965641445  -10.18344763095370
F        -4.33647726656029    5.79126033215937  -10.98268114038352

