37
CSD_code = HAWXAG | q = 0 | S = 0 | Stoichiometry = C16H10F6N2O2Pd | MND = 4
Pd        0.78436935168400    5.22913229111540   24.93155337338374
F        -1.07962064251763    9.07884558474668   28.15244444573712
F        -0.47110463732661    9.55604694926554   26.14641984904996
N        -0.70162525656516    4.40435526638227   26.14596422841931
O         0.62177468424968    6.97647586719724   25.91028784806188
F         1.00512196758550    9.06599570011911   27.62979147807501
C        -0.28801801380699    7.26824006501659   26.75980568481299
C        -1.90987019389439    2.40328259467645   26.69055411292663
H        -2.04161535456485    1.34707873538399   26.52519445018868
C        -1.45671650861340    5.09775523201208   27.03292958214534
C        -1.26286017839257    6.48740612986996   27.30082748509409
H        -1.93892390527621    6.93440871305313   28.01059067705588
C        -0.21767428362373    8.73992314331663   27.18496973512690
C        -2.47868612846315    4.44333115454306   27.75586754939732
H        -3.06702711405200    5.02572038988456   28.44689317636517
C        -0.93417648743008    3.08998445451967   26.00316827527925
H        -0.30866253884221    2.56144766885556   25.29543615959870
C        -2.71207948847414    3.10337297513621   27.58923050582752
H        -3.49269789567463    2.60336969346779   28.14177465677978
F         2.64806880248681    1.37955784685717   21.71036565205223
F         2.03948994793833    0.90238767771301   23.71637885073685
N         2.26994518336907    6.05407383975195   23.71672636939213
O         0.94663289520149    3.48193755240230   23.95248282501022
F         0.56330716596248    1.39239838913990   22.23294930092533
C         1.85640289181022    3.19018150124795   23.10293446829925
C         3.47816567667161    8.05516020672895   23.17213659222478
H         3.60990136057972    9.11136528705947   23.33749770316566
C         3.02504166505830    5.36068805866334   22.82975832787409
C         2.83121910927677    3.97102604734341   22.56188768552552
H         3.50728273668042    3.52402965610200   21.85212120797171
C         1.78608491736106    1.71848996979473   22.67780274190483
C         4.04701688008507    6.01511625655298   22.10683478534699
H         4.63538661542005    5.43272542606753   21.41583515818102
C         2.50247366171955    7.36844914309604   23.85951691866003
H         1.87697368659624    7.89697176897261   24.56727220520345
C         4.28039163734650    7.35507911598827   22.27346850806492
H         5.06100779043494    7.85508964795649   21.72092742613597

