37
CSD_code = HAWXOU | q = 0 | S = 0 | Stoichiometry = C16H16N2O2Pd | MND = 4
Pd        3.21732273242663   -0.00083887152735    6.08187224188811
O         1.89699952312618    1.02554614334580    7.22421616922599
N         4.76223062201652    1.13774690092442    6.84861139858002
C         6.01174073843471    0.71279982283042    6.60833770068339
H         6.10216477984761   -0.24204916787013    6.10495816300918
C         7.14302871044545    1.41526925899553    6.94894257354682
H         8.11886854356181    1.01463421606962    6.72959732214651
C         6.99153627198155    2.65650996360461    7.57316059388951
H         7.85465176735554    3.24966776585273    7.83655218842688
C         5.72769026768026    3.09318712103571    7.84936300622429
H         5.56408577665742    4.03792967814423    8.34405764387128
C         4.58977954961021    2.31455300756091    7.50850983471759
C         3.32349285267465    2.79250204172845    7.91825809492734
H         3.31988023278781    3.74439572065802    8.42703223868925
C         2.11477368561662    2.14464125533359    7.79657428057546
C         0.89926000524257    2.81126092289587    8.41328819850568
H         0.02738588255543    2.17537146169417    8.28488610436903
H         0.71713639415355    3.77078598869097    7.93471653142683
H         1.06256141302642    2.98319386840861    9.47437610848322
O         4.53721435943513   -1.02548150619375    4.93771316999419
N         1.67209868533123   -1.13769053466325    5.31315507224472
C         0.42259667808780   -0.71272442089891    5.55345803999046
H         0.33218948858335    0.24208228297672    6.05691701844001
C        -0.70870544978245   -1.41519108282521    5.21288254937616
H        -1.68453854612176   -1.01456187335927    5.43226717251599
C        -0.55723499398043   -2.65643648305787    4.58866013402960
H        -1.42035868250084   -3.24958524606964    4.32527270150237
C         0.70660380700565   -3.09313735261681    4.31245924185050
H         0.87019785194815   -4.03788905966312    3.81777741491544
C         1.84452257558844   -2.31449894520612    4.65327073987584
C         3.11082150700573   -2.79247430316628    4.24360067751087
H         3.11445883048047   -3.74439090260458    3.73487825508236
C         4.31951895923110   -2.14456434546454    4.36528289202025
C         5.53507876768396   -2.81123690768140    3.74873276619425
H         6.40697242912146   -2.17539689703966    3.87722887735039
H         5.71710201978294   -3.77078309362570    4.22730211441961
H         5.37187196389910   -2.98314642721672    2.68763076950057

