69
CSD_code = HAXDAO | q = 0 | S = 0 | Stoichiometry = C36H26N6Ru | MND = 6
Ru        9.89890717095016   10.84150385258551    0.10069579394552
N         9.79489336243710   10.91091894485307    2.05210853191978
N        11.53737792487020    9.92995958666714    0.57153322099732
N         8.33878294635048    9.73405880985776    0.42480384346064
N        10.05533187300441    9.57260351482020   -1.37841433213620
C         7.65532734239863   10.11769770828310    1.54834338897358
C         9.21905845348074   13.47207199648694   -0.85619931383014
C         8.97668967390973    8.76435015690287   -1.59171941215176
C         8.49760164603283   10.78892175475889    2.49492753053523
C         7.25391134479326   12.29633592806791   -0.31547409466262
C         7.96357850800354   11.25716006476357    3.69166722605604
H         8.57892375249639   11.81801597984757    4.37710034018956
N        11.15866230483096   12.26482421678623   -0.48535875953897
H        12.17639104181478   12.22156318589964   -0.55639217871897
C         6.70923006705473    7.15173721294880   -1.68566867085291
H         5.84059837352775    6.51156763900168   -1.72239148971712
C         8.55538145067323   14.63623219884487   -1.27654504440473
H         7.47599295511017   14.67282101531357   -1.26082582807348
C         8.80406499317187    7.84733411967551   -2.63339863681440
H         9.55754166982352    7.74575512226326   -3.39615710934881
C        11.37575226198643    9.31656749249692   -1.66883904262621
C        11.94997525136498   10.02804096346293    1.86569900460718
C         7.97810998040197    8.87140732041115   -0.56659094542976
C        10.64401640533507   13.42818257195916   -0.90489687594980
C        10.93387071480383   10.56250998121068    2.72275757781593
C         5.79696857735276   10.44583491785951    3.04700153365557
H         4.74289787373732   10.34167417252317    3.25543881347304
C        10.68368782497454   15.67092756095203   -1.75942778813131
H        11.23095130287539   16.53270020990092   -2.11142876763385
C         6.29670668307363    9.98167494076909    1.84801476942515
H         5.61130392179685    9.58259002487930    1.12038610072476
C         9.28627430049252   15.71432249641146   -1.71600524442194
H         8.77456301343600   16.60858915440364   -2.03911998396540
C        11.36179057138393   14.54321700004452   -1.36566770442012
H        12.44165674361746   14.49848289572128   -1.40236361416055
C        11.92292034502127    8.90568700562546   -2.88050389915539
H        11.29011120956487    8.75331971083040   -3.74012349171769
C         6.49019732558638   11.55481577541038   -1.21498099289445
H         6.98837540647704   11.01724445759461   -2.01053403958700
C         6.86109188241718    8.02689574350515   -0.63326803076856
H         6.13129455848004    8.02014734446619    0.15715846893735
C        14.13330361915948    9.08462168037100   -1.94919770660988
H        15.20362469522762    9.03017487409223   -2.08050458340388
C        13.61942025909027    9.48934559279348   -0.73395642767673
H        14.29536753536085    9.79369600680413    0.04863397336993
C         6.61500597787307   13.01407963906587    0.69504708377456
H         7.21303405678030   13.58819664885644    1.38858278198893
N         8.65267200891218   12.31870528420798   -0.43391517277644
C        13.29271239503391    8.77738386891506   -3.01065717170901
H        13.71208967475561    8.47394923081681   -3.95784420562718
C         7.67121104060566    7.06617342283208   -2.68706855596244
H         7.54014395113629    6.36924408517208   -3.50099711026329
C        11.15517702532468   10.61357561966082    4.10222119267618
H        10.39109923525906   10.98842433444506    4.76190799755140
C        12.23571235966778    9.57193276184952   -0.54906981307635
C        12.35148746080920   10.17597569407702    4.62730174784291
H        12.51783542557637   10.22907163286883    5.69260890299294
C        13.13639640655932    9.55227214482184    2.43944580170523
H        13.88001138157217    9.06421048777033    1.83232998055603
C        13.33321267239956    9.64068669943348    3.80000055564883
H        14.25190921193947    9.27013478394446    4.22931110713032
C         6.62264061903815   11.07513213927026    3.96779880343146
H         6.21140923521069   11.45345995911843    4.89139974940222
C         5.23950255275790   12.97199024537398    0.81251546893975
H         4.75409264855300   13.52501707919335    1.60303038593736
C         5.11422641964254   11.51738808284663   -1.08855368118086
H         4.53081887717947   10.93654170632597   -1.78826613248985
C         4.48538995061597   12.22339874509625   -0.07634627329830
H         3.41023029505728   12.19195280092391    0.01880044750725

