70
CSD_code = HAXDUG | q = 0 | S = 0 | Stoichiometry = C20H44P4RuS | MND = 6
Ru        3.02925759103719    1.88637455255313   13.26531349404736
S         5.16426904062505    2.32789736366900   14.35495009104777
P         2.79016404778979    0.57596307010147   15.17261903324917
P         0.84313770122205    1.76687087807159   12.55028312269123
P         3.85185948849350    0.11282658729953   11.98515816374983
P         3.94089373727697    3.49763306526502   11.81277059151410
C         4.71738428510469    3.71358541398888   15.33053658513147
C         3.41201540450881    4.20392269877887   15.27867382615850
C         3.09648896706655    5.31919546246210   16.04575217982746
C         4.04552867524886    5.93071573002460   16.84333636904240
C         5.33474079519390    5.42628289940015   16.88710875063603
C         5.68932750383044    4.31798843688355   16.13679586204266
C         2.35195394218671    3.54549649816034   14.44506074424666
C         7.08120730135741    3.76828288125853   16.17072955103126
C         4.21179186728530   -0.49668264684402   15.62733700487584
C         2.57587902996203    1.39664221766696   16.80047079635141
C         1.45781336322156   -0.69270093488569   15.34454850017717
C         0.23019843785556    2.82371543582552   11.17312726262378
C        -0.47825802384244    2.21712902889523   13.75533250009898
C         0.13104076073028    0.17243886518898   11.95653858475756
C         3.25263494861441   -1.62891471252804   12.12130538428452
C         3.71869119158163    0.23134800743590   10.15035691681297
C         5.64761051311162   -0.24362707753429   12.14594464049748
C         3.22304242641908    3.92460324925337   10.16153151407481
C         5.68107622730924    3.24617459838887   11.26429036769374
C         4.14843277315308    5.22243243580769   12.40820453108642
H         2.08677144167614    5.70899692935290   16.01236131874942
H         3.78239171754768    6.79842106330749   17.43199830048691
H         6.07870902499912    5.90176180372194   17.51185517639759
H         1.87852190476997    4.32567938254720   13.82353328191758
H         1.55956110748548    3.23907293028932   15.14326815898596
H         7.06509323599081    2.72607202248394   16.48922514606169
H         7.51641110669693    3.78833327512683   15.17146937456597
H         7.71138092349946    4.34067294076012   16.84746346813107
H         3.98128720927027   -1.03985577682443   16.54428861683114
H         4.42108653976603   -1.20569476435525   14.82949725233773
H         5.08798465745208    0.13257645700464   15.77596720510287
H         2.67678416847121    0.65395723241072   17.59236052609494
H         3.33750225409755    2.16628622367127   16.91918671139943
H         1.59363743268217    1.86167155693352   16.86579744589483
H         0.48018934614459   -0.22216262378754   15.26235863613513
H         1.55316227499553   -1.43743837492505   14.55684023580192
H         1.53749346665959   -1.18321566582407   16.31479862837359
H         0.44827534561105    3.86396484745643   11.40888974432113
H         0.73212962366605    2.55230241618774   10.24697659264453
H        -0.84622891034207    2.69590757135423   11.05507939043998
H        -0.45774232132889    3.29393084037471   13.91138498508304
H        -1.45327739929990    1.92774131761217   13.36278482306494
H        -0.30735092178229    1.72448776109156   14.70991134959764
H        -0.92308698007407    0.29732737595420   11.70851624396659
H         0.67212873229200   -0.14764612588088   11.06760406280006
H         0.23609992416605   -0.58557073887660   12.72939958867930
H         2.22314265228169   -1.69997826566723   11.77895169375253
H         3.88123393345729   -2.27343632740619   11.50574866846152
H         3.30180931955781   -1.96651732441896   13.15387397595878
H         4.27020571543624    1.09755519150931    9.79283363679495
H         4.11418184788592   -0.67013737029619    9.68139674024987
H         2.67044002210878    0.35241386424737    9.87785166574241
H         5.98237553517014   -0.90238026641051   11.34357010438250
H         6.21011449623969    0.68612919513607   12.13266304375079
H         5.82320902524827   -0.71721278853829   13.11043348614905
H         2.32949754337394    4.52748057948973   10.30565653049311
H         3.94745882403942    4.50070366679353    9.58617980935374
H         2.95811127473844    3.02681641458601    9.60858519692741
H         5.76660697045559    2.36640696886904   10.63033692987287
H         6.00994248660771    4.12399275141136   10.70753954948172
H         6.30861068380689    3.11738011774757   12.14495441423102
H         4.77348446302698    5.22981533453644   13.29911366864456
H         4.62173038358911    5.81150373690864   11.62196063994283
H         3.18384792152528    5.66099063970986   12.65485761419324

