64
CSD_code = HAXDOA | q = 0 | S = 0 | Stoichiometry = C22H38P2RuS | MND = 8
Ru       -4.27074991118669    1.45005904777661    2.33307551019394
S        -2.32590707965277    3.06408903356793    2.52568922179986
P        -3.30696087180656    0.55994076706766    0.45882780951110
P        -5.20799167850714    3.31472195941109    1.29297610731822
C        -1.45180162890506    2.73410478044736    4.02162885020154
C        -0.40628560776219    1.80333643267832    4.03606391201003
C         0.27655191961573    1.57336426147088    5.22076480844320
C        -0.04645362563366    2.26443851077226    6.37390120690476
C        -1.05815337239734    3.20737935405530    6.34550103041456
C        -1.76518298734921    3.45787965013733    5.18012954222493
C        -0.01936730348399    1.07729449297789    2.78583116798865
C        -2.85368368966198    4.48600521735091    5.15768648649914
C        -3.45651797800924    0.00140820213115    3.74696336346081
C        -4.10005104439768    1.04187755364343    4.49309876274637
C        -5.41797004369127    1.48165295592629    4.30118249185586
C        -6.24519586620572    1.14657710697670    3.19495648449661
C        -6.02317141406220    0.12140066040851    2.23457769326214
C        -5.99905180993726   -1.35380543024936    2.57682303071098
C        -5.38291778939486   -1.68682425980882    3.92512599877459
C        -3.88236714375732   -1.44793016713959    3.91340885071158
C        -4.45968047224956    0.24977325585875   -0.93948263238734
C        -2.55358766437138   -1.11067844800973    0.56642319402811
C        -1.98685449175788    1.45305976483750   -0.45540173860454
C        -4.26063124408858    4.26045406248171    0.04146856410017
C        -5.58833859191173    4.68412310082527    2.45038120554506
C        -6.82099534318611    3.20661037373340    0.40258687570631
H         1.07695441253488    0.84608504114289    5.23493142579201
H         0.49343589866992    2.07498254940688    7.29054442857096
H        -1.30479414117274    3.75991304118437    7.24218283441372
H         0.56719657992007    0.18915130738161    3.01234992551694
H        -0.91570193328035    0.79565154174021    2.23060832929313
H         0.57296268341387    1.73406296407644    2.14716967507251
H        -2.57857715672491    5.30085257402766    4.48807467149837
H        -3.77666660162175    4.04739376701926    4.77631715576603
H        -3.03376271433911    4.88867389114088    6.15218258242588
H        -2.37017547183168    0.03932737356920    3.89704679601250
H        -3.51048407614749    1.61005754540051    5.21498553689146
H        -5.78760326124158    2.26052777105473    4.96962771778454
H        -7.09347027715241    1.82206761343178    3.04566093089426
H        -6.65521786653738    0.26275835095248    1.34787333560018
H        -7.04219790936748   -1.69889643618153    2.57174372584155
H        -5.48073470595483   -1.90991857711537    1.78945760128489
H        -5.85416213094051   -1.08676118034756    4.70820550506255
H        -5.57396112214439   -2.73895614071202    4.15606194862047
H        -3.42498371262896   -2.06023214062866    3.13260066179437
H        -3.46572060080344   -1.79278317471978    4.86941461560076
H        -4.91996878664316    1.19008646342410   -1.23765455236196
H        -3.92063803478956   -0.17716812586130   -1.78447707382407
H        -5.23778865350444   -0.43819827251631   -0.61666858901510
H        -3.32329091924702   -1.82185196065443    0.85653393998116
H        -2.14395622477906   -1.39679681420776   -0.40209259945667
H        -1.76487111280314   -1.11845795919805    1.31481327460417
H        -1.22670151746029    1.79618228917337    0.24174509779454
H        -1.54442917335313    0.79880182149692   -1.20618281345214
H        -2.42015297543981    2.32734988734779   -0.93584286278131
H        -3.24631566019560    4.40016073228522    0.41177678494966
H        -4.23371019433253    3.70316947415857   -0.89378902419936
H        -4.73250397119015    5.22889766702875   -0.12589059207525
H        -4.64160489588108    5.05110952313666    2.84254891690527
H        -6.10707629131133    5.48838902864877    1.92806596889739
H        -6.20551652500906    4.32703969460990    3.27388033533687
H        -7.06559685449432    4.17634270340492   -0.03007095935776
H        -6.75447500963986    2.46407108446204   -0.39053237002421
H        -7.61352235882637    2.91150284211179    1.08720991642663

