102
CSD_code = HAXFOE | q = 0 | S = 0 | Stoichiometry = C44H53ClIrN3 | MND = 6
Ir        6.63355511026957   12.31143949607691    2.20968932972096
Cl        6.40696400351844   10.96057864981621    0.31054456140281
N         6.85774637334484   13.45444163168598    3.84571477643836
N         7.09022094173176   10.42828394712913    3.19154086173652
N         8.76148290738921   11.99434621827822    1.86379929944677
C         6.06250621448525   14.50995743136696    4.10077612525622
C         6.23563482832457   15.29157197685037    5.23505912008782
H         5.57729453164037   16.12949001642639    5.40428390000389
C         7.24327542505558   14.99623523438742    6.13585241529630
H         7.39009405663882   15.59508989056565    7.02128900146581
C         8.05945591358776   13.90659569808978    5.86508064728235
H         8.86133664084289   13.62926479583233    6.53110694565370
C         7.83031448627070   13.17364889553256    4.72022422342483
H         8.45521218535777   12.32165677932265    4.49168496959085
C         4.97934653367730   14.81547288592842    3.10794814174712
H         4.41097953434651   15.68983508699641    3.43428340318354
C         5.62687908256221   15.07130715010405    1.76176201577829
C         6.34050303854365   14.02927415209211    1.16604003680568
C         6.89641449147058   14.25706521391734   -0.08359290603862
H         7.41393662253076   13.44456129546660   -0.57187770949314
C         6.79635924187482   15.48219494083982   -0.74126631618489
C         6.10142161067058   16.50288634877835   -0.10945040313836
H         5.99241644442616   17.47138042650634   -0.57049894111433
C         5.51720189019328   16.29542856322310    1.12988931938877
H         4.96517002784884   17.09938291878719    1.59941376319299
C         7.43828578323062   15.63170064993733   -2.11269436278545
C         6.74205348722126   14.67078514959501   -3.08552333237407
H         6.81334833499423   13.64401563612405   -2.73863417514453
H         7.19552009906685   14.73654983436624   -4.07308280774966
H         5.68758613387951   14.92427231715570   -3.16977424880806
C         7.31977619277868   17.05352687228606   -2.66885631393828
H         7.80661804349481   17.10647255254906   -3.64113932180162
H         7.80149894625079   17.77251626485756   -2.00954960383407
H         6.27792575606198   17.33470650157924   -2.80078034953861
C         8.93049893557581   15.28039733817731   -2.01793182382530
H         9.07133335139916   14.24578267447435   -1.71805755237739
H         9.42287648665890   15.92183718384955   -1.28875375675218
H         9.41153596433090   15.42322895680530   -2.98399706989346
C         4.07632615694282   13.60417272522156    2.99317855811022
C         4.62960432535192   12.41146438668280    2.52303350060557
C         3.78936108490541   11.31792787147172    2.38168902513370
H         4.19902191130601   10.40323810150411    1.97945383637057
C         2.43642811704390   11.35950527870093    2.71562040201722
C         1.92497943311892   12.55304147877805    3.20329747388742
H         0.88656267414267   12.64287612902415    3.47905618665528
C         2.73887889340826   13.66679021254180    3.33566941107915
H         2.31738705699679   14.59328685368920    3.70367026348036
C         1.59462101401443   10.10773092857717    2.51689346718045
C         2.21967267983020    8.94400137645209    3.30042257218002
H         3.21819809768501    8.71763100565482    2.93702813671576
H         1.60816247995969    8.04955316911007    3.19498914621571
H         2.28537671864857    9.19474551817208    4.35801074184700
C         0.15143811796312   10.28320962245653    2.99795215180709
H        -0.39935645645006    9.35690132711299    2.84383924466685
H        -0.35221885244533   11.06875157468990    2.44009761750615
H         0.11920164209394   10.52348396200777    4.05856209806438
C         1.56849690528630    9.76874720049488    1.02055763744356
H         0.98983486394418    8.86303807646939    0.84691103222855
H         2.57301087002915    9.61772211320006    0.63612078069244
H         1.11417172669760   10.58392321829293    0.46164612704921
C         8.15621432586657    9.82356353927577    2.64533012658772
C         8.37819257225734    8.45793793154179    2.82281098066161
H         9.24238706619181    8.00380223514362    2.37267599353611
C         7.48936660175073    7.68276273076882    3.55221718101739
C         6.39980712270316    8.34747060673321    4.11812892350044
H         5.66297088669991    7.82213796404051    4.70382101750174
C         6.25034871484619    9.70336982340757    3.91487605496452
H         5.41089494279302   10.23754227941860    4.33919978093782
C         7.65007234231053    6.18644206480870    3.74175036027441
C         8.90314883727286    5.63590529497550    3.05625680944953
H         8.86761398388536    5.80529882609441    1.98250929402746
H         8.96377757803974    4.56262565416651    3.22302697905429
H         9.80555596919318    6.08815889763762    3.46294244721657
C         6.42178728427295    5.48835945232237    3.14088909741829
H         6.32880196596898    5.73356938883416    2.08507060082650
H         5.50739642478641    5.79261520332470    3.64271429617762
H         6.52145133433726    4.40962065721377    3.23813149387178
C         7.74414050666008    5.87985224070600    5.24315932052104
H         7.86409202805440    4.80984189122872    5.39650006984685
H         6.85028851911749    6.19994784689420    5.77135824760474
H         8.60111960701693    6.38833127132737    5.68111367751157
C         9.06439091215172   10.68696596476896    1.87665895309414
C         9.56560947976318   12.82536442442101    1.21832252804064
H         9.28622849736130   13.86991365058950    1.24773463349720
C        10.68488034908201   12.41328464226273    0.52564556925430
H        11.28028713201906   13.14845269828358    0.00891919260066
C        11.00929619189959   11.05601399186424    0.48793179835269
C        10.18205676465048   10.19997504896679    1.19931129182640
H        10.38310797040206    9.14403180903273    1.20881523461763
C        12.20760093221965   10.58266624180254   -0.31229497736562
C        13.47190908433106   11.26446109705084    0.22974398508207
H        13.40689656954170   12.34589133439676    0.14760392984608
H        14.34218164216567   10.93305254397282   -0.33207158547261
H        13.62098074997867   11.00914423874801    1.27731638920938
C        11.99099911194093   10.97217378986131   -1.78145880088605
H        11.07223844707115   10.52656233770652   -2.15672667719313
H        12.82114930466524   10.61660546548049   -2.38767479705819
H        11.91976334154238   12.04987376085543   -1.90001424378345
C        12.40524150895261    9.06660704339152   -0.23786238291471
H        13.27195125589231    8.78590985770782   -0.83239944907744
H        11.54143317332409    8.54027734078503   -0.63743564265951
H        12.58362985511795    8.74229321210041    0.78553102548507

