79
CSD_code = HAXFAQ | q = 1 | S = 0 | Stoichiometry = C35H39CuN2OP(1+) | MND = 4
Cu        1.99656270525769    8.16036768792629   14.74153423584808
P         2.24319686389899    8.02457832503443   16.99406962567106
O         3.98918914867022    8.81277758890371   13.99805907845505
N         0.83345286562567    9.32043011417640   13.59612443127456
N         2.00995713401940    6.19185789808074   14.16356407586685
C        -0.02248914421509    8.76501525943840   12.73929967752962
C        -0.77572185699382    9.50212102687025   11.84794682687769
C        -0.65355036524253   10.89016475572142   11.82139864560152
C         0.24817858492977   11.45904997581377   12.71821900142533
C         0.96074268060606   10.64607539211736   13.57652869828988
C        -1.46474503774961   11.72477620804926   10.89317866984853
C         0.96939581478601    5.42921230270353   14.49230242216459
C         1.06186233315419    4.06451048187784   14.67572021975047
C         2.29182007018280    3.43192636531354   14.51439397498368
C         3.36787363787591    4.23216764881374   14.13791316130863
C         3.18279264826352    5.59102450432612   13.97556657193297
C         2.44843752618595    1.96949036717860   14.75014200124696
C         1.47642372463513    6.47029026228711   17.56242950966267
C         0.08907684596092    6.32400608040459   17.42056583472883
C        -0.49211302976326    5.11138422917951   17.76425151499913
C         0.27124896466962    4.05485225317118   18.22830531536769
C         1.64066578033167    4.20318557463169   18.36263405442383
C         2.23885340382467    5.40451165858288   18.03063100769693
C        -0.76383999758583    7.45022656576643   16.92639180381355
C         3.96572881138522    7.90230154187982   17.57353179811847
C         4.49015458661057    8.67139599674999   18.60601381865771
C         5.82847942805879    8.55430714130027   18.94191857110189
C         6.65122218128962    7.68113816503636   18.25077120237713
C         6.13717437834490    6.92467717450437   17.20826740651286
C         4.80436337503898    7.04198782146240   16.86483281104141
C         1.52401427816596    9.24095211789207   18.14447045841867
C         1.23410074551216   10.51507609869985   17.67151234398933
C         0.69990426422772   11.46835328511303   18.51974400780430
C         0.44861129473159   11.14821555136854   19.84386815370211
C         0.72969068823459    9.87593182193820   20.31860305968684
C         1.26600405758171    8.92102760426958   19.47474149950904
C         4.65109224363800    9.81718653567766   14.77118399639975
C         5.02395875129713   10.93801231082307   13.80503121749185
C         5.22591374402825   10.16306206955279   12.50502957983015
C         4.12729130191685    9.10950613872864   12.60774331199193
H         1.66586000231643   11.06961233932629   14.27791087730030
H         0.39110712240536   12.52806034438406   12.74569872008741
H        -1.45420989062411    9.00136364771038   11.17530453154844
H        -0.09714058664065    7.68780288262153   12.77134824406546
H        -0.96951261729192   12.66809708953402   10.67849299391926
H        -1.65774832919383   11.19718573014176    9.96246153369832
H        -2.42751522360376   11.94820540088601   11.35414531778505
H         0.02302427272083    5.93659335486969   14.61091735805358
H         0.18604984133079    3.49740384121053   14.94830281032539
H         4.34233743434352    3.79761164478651   13.97668087274271
H         3.99865085790774    6.23677928604742   13.68272573027961
H         1.55167725621763    1.43015955683217   14.45534597774795
H         3.30261083811280    1.57273218084338   14.20779688778521
H         2.60906502420798    1.79089073951886   15.81383974940415
H         3.17639669883207    9.49788716729995   12.22198302916732
H         4.36556025171776    8.18310493152121   12.08007645710042
H         6.20790101477263    9.69011597595209   12.49656091183672
H         5.12224707548519   10.78024708309015   11.61672809685283
H         4.20123660153131   11.64610492620851   13.69831283841887
H         5.91213618843797   11.47568788061310   14.12498757603932
H         5.54680127480759    9.37003273885664   15.21943072407023
H         3.98692349402374   10.13787341728379   15.57932403081103
H        -1.56173472690464    4.99450376648682   17.66512560664419
H        -0.20220350677168    3.12020539105306   18.48772960060754
H         2.24396320197669    3.38740556288518   18.73147993450225
H         3.30745870455272    5.51521285068722   18.14366811797309
H        -1.70693614634949    7.07692647181484   16.53287098886354
H        -0.98934081330048    8.13798907447349   17.74203434240325
H        -0.24615602921439    8.01607545786278   16.14588995012267
H         4.39401631449581    6.46814094509289   16.04437041184621
H         6.77833597520353    6.24742209171260   16.66344715095997
H         7.69259477530719    7.59229106814986   18.51983537901202
H         6.22942645688467    9.14901984418210   19.74874806865282
H         3.85811902960990    9.35803529182787   19.15001326748068
H         1.42385982145765   10.74464655196337   16.63088218526190
H         0.47656859717162   12.45810477805309   18.15053968539401
H         0.02967761738492   11.88934130189307   20.50708384156406
H         0.52964077860005    9.62858631028562   21.35023976586064
H         1.48567591731200    7.92700718139649   19.83953283855175

