61
CSD_code = HAXJEW | q = 0 | S = 0 | Stoichiometry = C18H30B10ClNRu | MND = 9
Ru        4.98569042681182    5.25057234799709    7.24662952617825
Cl        3.82346411112652    5.61451151793284    5.23094648903716
N         3.53742218884832    3.94717836758028    7.70946752156849
C         6.04064517383118    3.63868566704779    6.34938792319165
C         5.92398634827160    2.22877150668435    7.08461517706898
C         5.09250725529010    2.18722443905292    8.35946401065122
H         5.05324621521255    1.16183924069943    8.73281176896347
H         5.57838851179814    2.80034382091554    9.12937345632093
C         3.69328291118158    2.69712017906105    8.18253413348812
C         2.60727400403895    1.90009120579822    8.51289769559366
H         2.77982424021640    0.89972259613698    8.87806770873211
C         1.31828486742006    2.38455721807917    8.36666656652785
H         0.46493697011093    1.77258679447300    8.61163054152557
C         1.16451713380904    3.67864793197142    7.89352746264556
H         0.18750356763337    4.11306877800566    7.75744779710205
C         2.28731237589314    4.41661438208044    7.57969265224396
H         2.18491684149606    5.41436974754870    7.17177964349443
C         5.79454550666594    7.40372674730795    7.11384637523601
C         4.51885949024463    7.50882814743331    7.74052419749243
H         3.78809324744247    8.19278253846617    7.32481783423509
C         4.21657924837681    6.78488702993946    8.88064375947862
H         3.25645356430747    6.90600417157144    9.37063764476389
C         5.18789044575273    5.92055229806446    9.46862884121773
C         6.47952937773085    5.89588621772644    8.92448870256066
H         7.27756704208259    5.39040095124234    9.45501824546007
C         6.77505508698817    6.61183324182895    7.73537553725682
H         7.79531800809630    6.61938471784957    7.37149791398262
C         6.11127135514715    8.29847053359336    5.93787048841463
H         5.16105189700598    8.62997128984401    5.50500258162039
C         6.87449292580154    9.52954332039015    6.44086033820349
H         7.06254842388093   10.21170092684333    5.61563755654795
H         7.83084694781633    9.23684106500543    6.87015667373439
H         6.30222389991449   10.05754750154638    7.20194425475846
C         6.89390712514193    7.57752675987049    4.84183168174701
H         6.37867691001256    6.66127700409108    4.55982600733187
H         7.90089721526050    7.32890892183959    5.16738077236449
H         6.96934886668563    8.21549448665249    3.96486934619322
C         4.87251000887884    5.23448200666466   10.76917829425645
H         4.76963492592854    5.97823968810159   11.56127058915938
H         5.66472305435131    4.54433948460912   11.05341544821833
H         3.93265438441744    4.68446876791157   10.70840063364932
B         7.42329935454141    3.03953577754923    7.21129652390465
H         7.66867128594969    3.52086938661961    8.25573342797093
B         7.62486861782587    3.78445243396711    5.66136964261893
H         8.11429437450625    4.85037825831159    5.58374087750201
B         6.25930066484146    3.37229199945763    4.64708294690898
H         5.84332868249170    4.16295072970256    3.88885137781304
B         5.15490546356953    2.37448543823537    5.55563366858363
H         3.98263601963741    2.47130746215371    5.53845059371548
B         5.97683562051136    0.88903916633372    6.01675773891720
H         5.32184648173404   -0.04858556211168    6.29878452724230
B         7.36763463264743    1.29143286380021    7.02364186614019
H         7.60778526491757    0.62544315037002    7.96550261444416
B         8.50238751923048    2.27205074250308    6.06856803196758
H         9.66348668838881    2.25769067784626    6.26131149191454
B         7.78267377783029    2.47753304686356    4.45668967616521
H         8.44891747085362    2.61258795499960    3.49632782494226
B         6.23182926045891    1.59896376751137    4.40714258960007
H         5.80750766971550    1.10692707240804    3.42708969504045
B         7.60868463847404    0.92226438143640    5.31409512645383
H         8.15492441095696   -0.06132230741561    4.96886596593986

