42
CSD_code = HAXKUN | q = 0 | S = 0 | Stoichiometry = C13H23ClN2O2Pd | MND = 4
Pd        0.98161955270563    2.14347633526764    1.54400169554991
Cl       -0.21790323171662    0.30635345470402    1.68967447423542
N         1.76660420031111    4.03389622992382    1.51817815523500
N         1.06128863224070    2.61045740548693    3.73938903316204
O         1.99222672305840    5.87803515009308    2.77785790758295
O         2.36109334204722    3.91674493697768    5.01799326964544
C         1.40566834719376    1.61291823163521   -0.38105174571763
H         1.79046701312838    0.58747827217109   -0.37617371713871
H         2.17206072974419    2.28192516250345   -0.79250951251328
H         0.50936816680633    1.63807335467479   -1.00964119305300
C         1.72798373217637    5.11245577922749    0.55210755260003
H         2.58500761914041    5.01448552578869   -0.12560017383640
C         1.87191522044491    6.37327877865538    1.44317986392712
H         2.76347008049141    6.95854096892151    1.20928016868434
H         0.99514935875515    7.02458757472770    1.40468451466830
C         1.86330769751848    4.54544931793270    2.69280058804982
C         1.75108034312300    3.68322511377155    3.84799105232976
C         2.11949321279066    2.75686165432642    5.82285421161732
H         1.63984991109769    3.07433581185024    6.75076385288555
H         3.08552111495856    2.30138051876614    6.05463819038594
C         1.21189003367204    1.84369655065361    4.95471266889011
H         0.22443193892478    1.71437286404457    5.41333215637841
C         0.43525047291847    5.02954956018080   -0.29271035405493
H         0.53968684625211    4.13752731777362   -0.92030392707746
C         0.30677861048872    6.24791358656497   -1.20346616209105
H        -0.51382054654439    6.09873217866464   -1.90021943432768
H         1.21855728966624    6.39803629883910   -1.77694756999325
H         0.10488990465266    7.15314079284525   -0.63575276472866
C        -0.81141094375724    4.83606954818454    0.57435825131236
H        -0.79731003305922    3.83820012799779    1.05180942433539
H        -1.70035909635861    4.89215964766783   -0.04893065592423
H        -0.88754611534252    5.59973343280332    1.34728786183722
C         1.76893747829029    0.44160112032040    4.61954342331163
H         0.98481690270993   -0.05874346975486    4.03852037986901
C         3.01663444994979    0.51255556025584    3.73597267419130
H         2.75485733871542    0.89758791445701    2.73061185724053
H         3.42556572693164   -0.48648953613717    3.60842438216163
H         3.78918077250315    1.14551972281537    4.17193230056586
C         2.02348773627844   -0.35407896472132    5.89554461669596
H         2.84192387521230    0.06943057604692    6.47443747088946
H         2.28256309589699   -1.37855450316890    5.64218130553119
H         1.13352249595351   -0.37261990373142    6.52024390666749

