60
CSD_code = HAXKAV | q = 0 | S = 0 | Stoichiometry = C29H24N2NiO4 | MND = 4
C         0.79927327871827   13.46519104446102    4.33400353080317
C         1.56679216896513   12.25643301817422    4.44457160369980
C         2.51282872541570   12.17907743052125    5.49358189859203
H         3.10579446921998   11.28328157058216    5.57735641500179
C         2.66659869895646   13.19366677558095    6.40620616325393
C         1.88436008960111   14.35828281973235    6.30833421897190
H         2.00162754981099   15.14758331974775    7.03851404252606
C         0.98275019622865   14.48202141670031    5.28809578063663
H         0.38492425996489   15.37934730877509    5.22080099788491
C        -0.08602346833638   13.64820312787132    3.22697097800122
C        -0.58016589076487   15.03807893313498    3.01255083238632
C         0.26788120133479   16.00871849840334    2.48995012231403
H         1.27919575074943   15.73967842773179    2.22285505591844
C        -0.18394369062696   17.30468247724714    2.31691683810566
H         0.47847971648612   18.05328156041454    1.90836163153619
C        -1.47954556757320   17.64342124104969    2.67163357756821
H        -1.82857409783507   18.65690740206788    2.54095354864722
C        -2.32442517024648   16.68217523590284    3.20053996641847
H        -3.33272923213765   16.94493235379100    3.48499915638757
C        -1.87953576950453   15.38256307237779    3.36850140244946
H        -2.53178721946703   14.63292379216013    3.79290177482499
C        -1.17676980065127   13.00868592717306    1.20750355274180
H        -0.65267161750725   12.54286817181181    0.36416532304333
H        -1.20539983920900   14.09021891537789    1.03379573053053
C        -2.60953911875827   12.46109480009473    1.26411040943256
H        -3.25272950399312   13.14859121215263    1.81534536500806
H        -2.99477895393094   12.38068173359287    0.24655013113689
C        -2.64758280602884   11.09037286371556    1.95338328502966
H        -2.62831211597374   11.23906238508659    3.03985014669617
H        -3.58206897081147   10.57872197183195    1.69783635098337
C        -1.65137840591474    9.21466758700267    0.87104822726976
C        -2.97799762781100    8.90586348331546    0.26557057773740
C        -3.41092170151723    9.59098526214881   -0.86440841532257
H        -2.77760268065032   10.34875631710943   -1.30285778458634
C        -4.63574915096405    9.28883495590903   -1.43308867717725
H        -4.96411496021034    9.82089058980829   -2.31380337180315
C        -5.43799623698622    8.30743193472561   -0.87559721326197
H        -6.39410991155660    8.07410966252797   -1.31977537633647
C        -5.00875485251461    7.61990855461893    0.24782000271977
H        -5.62899678390196    6.84900027279275    0.68032508370535
C        -3.78125555402570    7.91209931620654    0.81466275510412
H        -3.43822521173780    7.37648501451799    1.68752606711587
C        -0.61593154282543    8.25941820517293    0.63137399932789
C         0.58494091289707    8.29442677874480    1.41827995165531
C         1.52153071126918    7.25218880127067    1.22374569751199
H         2.41880976252737    7.25788658987511    1.82046458548515
C         1.32491293709497    6.26775282885349    0.28659590097013
C         0.16191186137915    6.26522731827649   -0.50434194066080
H         0.02089830157271    5.49465229104568   -1.25016864068380
C        -0.78160411932877    7.23754918632913   -0.32034731762077
H        -1.67259623247848    7.22925382453679   -0.93149537735068
N        -0.42397171206109   12.68893900917397    2.41484708011405
N        -1.48856219940953   10.27578099635532    1.60725615301711
O         1.46675573225870   11.26840849746527    3.63994038807120
O         3.57855440287319   13.04444211541879    7.40149272248243
O         0.83927720787259    9.18657595319899    2.29752383688257
O         2.27536997952247    5.30899903439141    0.13789541755648
Ni        0.08551666533088   10.86255559716845    2.48408384885559
H         3.57216966710286   13.82510542039343    7.96893248582442
H         2.01099747009832    4.69245579438063   -0.55594049713459

