47
CSD_code = HAXLOH | q = 0 | S = 0 | Stoichiometry = C17H19CoN6O2S2 | MND = 6
Co        2.72086903848649    0.85946482854139    2.56989150543820
S         0.36917038699628    0.97799123747806    4.66105856595069
S         3.55371868971890   -1.28387770744609    2.66123482432843
O         4.51736506228612    1.61921154970072    1.96323899108340
O         1.98119590749416    2.57598817106511    2.17655068408212
N         5.09879634118486    2.00404948068937    3.07499137687011
N         4.59782822760616    1.84186594128113    4.21896656769876
N         3.40764782301118    1.29932528477887    4.27622943636829
N         2.23527654812647    0.49752454260011    0.83698577523397
N         1.68388724786499    1.49897202121058    0.20442404366187
N         1.57317589914001    2.53273609859750    0.92240467251744
C         6.37512499889451    2.65840101827147    2.96251171000499
C         3.00213861022814    0.93353264172647    5.54634446013295
C         3.93746891145714    0.76091830335320    6.57396970016876
C         3.54900826520658    0.37405908856604    7.83932151662300
C         2.21233641917668    0.13286736460785    8.11616556012110
C         1.27410493038643    0.28964663365377    7.11309508686619
C         1.65327699817283    0.68428447411448    5.83865715441136
C         0.95924262343872    0.19916728899519    3.13831899737284
C         0.87074309375611   -1.33198448499251    3.20345747642131
C         2.17061440117115   -1.97396491220637    3.64434695051171
C         3.03610784331198   -1.70850316028186    1.00061121538687
C         3.26865869497414   -2.96778936285895    0.48527697163364
C         2.88641542447886   -3.25363870575368   -0.81502914801318
C         2.29237602207469   -2.26820794704379   -1.59380026143400
C         2.06516621029985   -1.00524852308709   -1.09001694438219
C         2.43403616576676   -0.70396331650367    0.22667139599616
C         0.96157072344869    3.71877404408380    0.39243944004012
H         6.73270774372226    2.89361165689111    3.96140843768661
H         7.07580678314884    1.99696909257329    2.45034103889743
H         6.26640372786483    3.57144042284451    2.37472692165850
H         4.97654917501852    0.94781526874532    6.35037773095282
H         4.29418799462904    0.25409965365947    8.61195354173121
H         1.90318202745479   -0.17577482924026    9.10313072786088
H         0.22593394045879    0.11859004853941    7.30648983496501
H         0.18411436116729    0.53971592207685    2.43809514169137
H         0.07201937719358   -1.62955252283598    3.89024135939837
H         0.61372837774857   -1.71012792434935    2.20824312963090
H         2.16784649793714   -3.05596749452954    3.51140635089873
H         2.41520782203204   -1.73102533543329    4.67875031980522
H         3.74551043381625   -3.71644991382001    1.09997279414266
H         3.05906143888505   -4.23759610664559   -1.22220832853663
H         2.00480187033632   -2.49334541442266   -2.61016175789691
H         1.60662574778665   -0.23335950294765   -1.68768173926383
H         0.65088459692068    3.52147201469565   -0.63008917908128
H         0.10238201071641    3.98766912290849    1.00934211458213
H         1.67822456500419    4.54111394814950    0.41974383578146

