109
CSD_code = HAXQUT | q = 0 | S = 0 | Stoichiometry = C56H44N4O4Zn | MND = 4
Zn       11.10407191469650    0.00016737289633  -10.02147188687866
O         7.31931693918511   -1.50037209902251   -1.92220960451821
O         8.02366662623312   -8.03615157239295  -12.85547692275211
N        10.04333106560295   -1.51651948423688   -9.19472750990043
N        10.94770235757606    1.04963268825980   -8.29352283500925
C         9.68098812331633   -2.67878681187194   -9.80300293705311
C         8.93733469180833   -3.49625571356720   -8.88626394454930
H         8.54489016744422   -4.47006499456619   -9.10438775356524
C         8.84709519980227   -2.80244254776987   -7.72774999157698
H         8.34544085042758   -3.08957800700183   -6.82460973511158
C         9.55240534917549   -1.56752396819031   -7.92646436936512
C         9.69007902082355   -0.57865907393244   -6.95254018714339
C        10.35688330098219    0.63160405699587   -7.14108045817457
C        10.55615060636966    1.61023193176538   -6.10918836214624
H        10.21616998124847    1.51724455626342   -5.09634718840483
C        11.26240894688361    2.62383393698287   -6.66213871790788
H        11.61256047602304    3.52056733555837   -6.18946945434326
C        11.49791435771376    2.26665513854745   -8.03283091792204
C         9.98445756741318   -3.04873325046364  -11.11279554472404
C         9.09421976117616   -0.83605753218823   -5.62433838149293
C         9.53304150535526   -1.89510656519981   -4.83979800743556
H        10.33330418827247   -2.52470204180739   -5.20069247924549
C         8.97773576609061   -2.14966806342102   -3.59793119227437
H         9.35724466227666   -2.97102287894580   -3.01125511815161
C         7.95418526117007   -1.34085717522179   -3.11758176170995
C         7.51112585249577   -0.27192303826222   -3.89870668042355
H         6.71605166333296    0.34784270120257   -3.51459559708701
C         8.07621466512841   -0.02274623812168   -5.12994407064379
H         7.71889747654248    0.80163815630406   -5.72922464739906
C         7.65999769594235   -2.60082616434973   -1.10478923563425
H         7.54642493249110   -3.54573676957328   -1.65327590633432
H         6.90902839393777   -2.57575081325133   -0.30548511584865
C         9.02834776062542   -2.49561488823913   -0.49385013922654
H         9.34867685659190   -1.48388928627978   -0.28520018709808
C         9.79327218369044   -3.53002302932981   -0.20203076800821
H         9.48255902300854   -4.54184544313081   -0.40806208217097
H        10.75711658924339   -3.41142008539107    0.26132359098376
C         9.49435388223784   -4.36138191049491  -11.58547335841013
C         8.12870346848041   -4.62575482848571  -11.67490469043101
H         7.42155397714419   -3.85292260596350  -11.41207924893835
C         7.67574989232337   -5.85251653316269  -12.10651546667164
H         6.62038889106650   -6.06226425726883  -12.18289577764757
C         8.57764840107594   -6.85999483772830  -12.45586830728613
C         9.94162178335256   -6.60240841117221  -12.37307624520010
H        10.66839066213168   -7.35534994069015  -12.63583844930594
C        10.38612763414147   -5.36287300209206  -11.94556435448837
H        11.44784085862238   -5.17508529032997  -11.87775928343754
C         8.87639278014893   -9.10625938433973  -13.21209300604328
H         9.51086400096083   -8.83059827949296  -14.06540771322936
H         9.52675520218694   -9.36488477658958  -12.36001724781993
C         8.02015410413412  -10.28705125277657  -13.55205972366252
H         7.18733097120333  -10.43947758549549  -12.88072010682478
C         8.23724787177903  -11.09245769618115  -14.57326295690717
H         9.06125067930065  -10.94183472280280  -15.25154205540260
H         7.60662610444322  -11.94200090823678  -14.76905189104321
O        14.88279344172921    1.50349324152032  -18.12305891514834
O        14.19062069556727    8.03326608110523   -7.18507729680301
N        12.16503235902807    1.51673055115823  -10.84813002698991
N        11.26073943868893   -1.04940921223791  -11.74932896374663
C        12.52802555617097    2.67867439700131  -10.23962601414897
C        13.27134229587815    3.49630729299156  -11.15649253128717
H        13.66415027731638    4.46993860699815  -10.93822466273446
C        13.36065569364194    2.80294584730798  -12.31535244460751
H        13.86177360195903    3.09031701510412  -13.21871656208451
C        12.65529338087901    1.56806069069935  -12.11663396937812
C        12.51719075535194    0.57942046452097  -13.09072446313601
C        11.85098255908648   -0.63113560579376  -12.90198416121676
C        11.65194508796652   -1.60995205743400  -13.93374306854962
H        11.99150529024990   -1.51683044483736  -14.94671073827650
C        10.94661023297004   -2.62400612941237  -13.38044371471993
H        10.59693074002901   -3.52104486370935  -13.85288568181280
C        10.71126265271407   -2.26682124099464  -12.00972745007621
C        12.22516580673924    3.04833416013797   -8.92960816263357
C        13.11188603289820    0.83745464212490  -14.41932605202754
C        12.67184164312698    1.89653609612932  -15.20314307355159
H        11.87166696654257    2.52568998904918  -14.84128359353090
C        13.22580425755744    2.15167456359142  -16.44548887493583
H        12.84534057116340    2.97301112831312  -17.03157228423301
C        14.24923702328255    1.34344050421742  -16.92706302597822
C        14.69360593589924    0.27455931117595  -16.14661051829246
H        15.48861471671066   -0.34471514588490  -16.53164728664820
C        14.12983314622467    0.02479065445148  -14.91488795397856
H        14.48815296266636   -0.79955629330474  -14.31615596686111
C        14.54049033740412    2.60375653221554  -18.94005989392975
H        14.65406425321120    3.54872113094725  -18.39166733882195
H        15.29057848402867    2.57919712912105  -19.74020620386916
C        13.17152334843482    2.49765430451665  -19.54946212035562
H        12.85165124735897    1.48572029834564  -19.75780450534946
C        12.40555093342002    3.53154693757431  -19.84035591126437
H        12.71577895003665    4.54357483268127  -19.63460297372385
H        11.44126122766013    3.41229298663571  -20.30261578186854
C        12.71637243184422    4.36044289309539   -8.45658733747548
C        14.08227797096242    4.62364717728958   -8.36756542251064
H        14.78867704735605    3.85036974182230   -8.63109606068916
C        14.53641788647437    5.84979197952738   -7.93546161346373
H        15.59198182625385    6.05861409898925   -7.85936345287933
C        13.63549276043541    6.85782552439284   -7.58519765630137
C        12.27127276147067    6.60144644606280   -7.66768679804251
H        11.54523418827655    7.35487290630078   -7.40429061184506
C        11.82556893552138    5.36251105685969   -8.09570140828937
H        10.76367225211177    5.17567077283422   -8.16326143532782
C        13.33895622836482    9.10385166530471   -6.82736421157221
H        12.70449330029757    8.82808543642860   -5.97407790310778
H        12.68856830221454    9.36373214068974   -7.67904042658852
C        14.19636298340900   10.28360284688278   -6.48671850973621
H        15.02925153796115   10.43566620375467   -7.15806007479441
C        13.98016699174183   11.08855025441698   -5.46496458907020
H        13.15609161773845   10.93829336866235   -4.78669168060123
H        14.61162612917771   11.93736297492329   -5.26870263813683

