69
CSD_code = HAXXIP | q = 0 | S = 0 | Stoichiometry = C30H28N6S4Zn | MND = 6
Zn        3.79344896099775    8.14361972936195    1.71907390353565
C         3.62667524175461   10.27069191496322   -0.16968609575880
N         2.93403637878228    9.75521728220787    0.78868325541540
N         1.83838567402694   10.36067465709430    1.21252077539582
C         1.23055182727898    9.83945908699536    2.25536344192328
S         1.70851896868691    8.51748080257838    3.18652525986714
S        -0.26732472125622   10.58637035938516    2.73578474313110
C        -0.41717710851893   12.02488050155542    1.58836281959887
C         0.18723429425689   13.25103728961525    2.18620323817195
C        -0.60483836427049   14.17291487121266    2.85979323486720
C        -0.03864774733248   15.29981188325845    3.42840450999353
C         1.32618519616075   15.51317364264951    3.33695791667660
C         2.12340423538864   14.59444491856851    2.67484933798780
C         1.55769912037641   13.47020223867885    2.10263281935876
C         4.79844619167159    9.57757347431360   -0.62323726298815
N         5.04669146033137    8.37141734078462   -0.08436473255572
C         6.12530872580548    7.69502795032308   -0.45703100316363
C         7.01665662519313    8.20199222373955   -1.39939643855544
C         6.77258995343678    9.44346368241956   -1.96582216702188
C         5.64654482730921   10.14188443007022   -1.58057881975111
C         6.35536156362758    6.36509199493233    0.18039357453118
C         4.01042861513728    5.59170379983581    2.96907535312643
N         4.60364471157378    6.73734561096984    2.96898928992082
N         5.55010020581781    6.98983553803313    3.85604561657047
C         6.05896246999879    8.20231358256596    3.86114995188847
S         5.63194936678180    9.51519459243610    2.89326205507561
S         7.35405697855623    8.49386516752062    4.98833046670374
C         7.44620509150647    6.92001551696351    5.94859446330715
C         6.58436715879311    6.98606884969339    7.16497544273582
C         7.12672835260631    7.33044278327703    8.39713330132806
C         6.32189366817810    7.40928172300446    9.51956940151953
C         4.96491461309256    7.15343887452628    9.42085962932241
C         4.41543041446270    6.81783912363718    8.19469837445165
C         5.22001367852731    6.73394354933246    7.07357824492824
C         2.99042298449213    5.34323963624624    1.99125550703474
N         2.78495508732697    6.29162685483033    1.06095299546803
C         1.84195365787885    6.11816705273082    0.14400507986637
C         1.05102786774990    4.97223603076807    0.11620270366989
C         1.25247532645256    3.98468709374769    1.06801423876822
C         2.23812123632853    4.16505891068049    2.01656312847622
C         1.65197502614967    7.20571673140210   -0.86062305924622
H         3.35447934551093   11.21949975851501   -0.62386047472344
H         0.08552922082397   11.72209897989856    0.67281515507905
H        -1.48801235099532   12.13826734222948    1.42805860225969
H        -1.66959535284426   14.00481089654348    2.93803299940068
H        -0.66423147882662   16.01157955465854    3.94703536917565
H         1.76828489320563   16.39131157479202    3.78414918636486
H         3.18981119358230   14.75211748660583    2.60678255215321
H         2.17693144732984   12.74638638937599    1.59423041697827
H         7.88712194436893    7.62961262125598   -1.67843125535269
H         7.45303920373917    9.85566426840915   -2.69589824241797
H         5.41769205416825   11.11198713210745   -1.99238333872237
H         7.05786511735523    5.77112446249300   -0.39785726520914
H         6.76603521915459    6.51071269844430    1.17900471573570
H         5.41447828368704    5.82983530621177    0.28052281755238
H         4.24924626455064    4.82650551346038    3.70256254935565
H         8.49922428500143    6.81396707897178    6.20367531520130
H         7.12958475413271    6.13948356471846    5.26071614090172
H         8.18461223259412    7.53764080634945    8.47502905963592
H         6.75483893069678    7.67474545228673   10.47302797939038
H         4.33621253794385    7.21901300300671   10.29665416750139
H         3.35616168590403    6.62440432630731    8.11005526515867
H         4.79306694764198    6.48164707867138    6.11448042175786
H         0.28989115953239    4.86277310407373   -0.64001750291263
H         0.64745776121117    3.09033140940499    1.06582964677033
H         2.42881208828617    3.42533202853458    2.77779412551859
H         1.10285786979016    6.84564421327631   -1.72637972677895
H         1.08737687959866    8.02011566655029   -0.40787126610133
H         2.61575004777025    7.59983698587365   -1.17282190928862

