40
CSD_code = HAXXIN | q = 1 | S = 0 | Stoichiometry = C16H22NPd(1+) | MND = 6
Pd        4.10026153077023    8.76177522107017    7.17222113354946
N         2.00710497215778    8.53741874953191    7.72193168945638
H         1.86164836712726    7.62300132092870    8.15804691361947
H         1.57557442577442    9.24206911432811    8.32442592237333
C         4.67746373074895    9.80096799164798    9.18206511858726
H         3.83760053178614    9.58028510925546    9.84657175571755
C         4.55219938788961   10.83465197248891    8.31743476792408
H         3.59850894936396   11.36564433398399    8.28443674959489
C         5.67432835467829   11.48903215547299    7.55219000434215
H         6.58549998243246   11.46801526154384    8.14736149256890
H         5.42000767001163   12.53924629664391    7.39866620159078
C         5.91156707071260   10.86143169844717    6.16070893385965
H         5.16172317143902   11.25548273081525    5.46327926261933
H         6.88580569864820   11.18702894874775    5.78327887019048
C         5.85253294410840    9.35562229099529    6.09037262971639
H         5.73280807648072    8.97927146749031    5.07008023514926
C         6.25996468183313    8.46754420180158    7.06398953163381
H         6.40221991778402    7.42422564007891    6.77651575374321
C         6.93064061868043    8.84721765468086    8.36473556535767
H         7.53103694233311    9.74395625360184    8.22140004927907
H         7.61644416106151    8.04651733335345    8.64702831073748
C         5.92910934408268    9.02993394537000    9.52320065122496
H         5.62220690670872    8.03636694324349    9.87479452822724
H         6.43117605046652    9.52170160937431   10.36197598851522
C         3.50246414133330    7.42435855299976    5.77626526304463
C         2.12408313521682    7.52443407136954    5.56403091212888
C         1.50105624616659    6.69656134954011    4.64115152205172
H         0.43622568089969    6.77930395514064    4.48326193720390
C         2.24529151456175    5.76920771375694    3.93292130695667
H         1.76155983360945    5.12765977222292    3.21362312121782
C         3.60526050924625    5.66081502273118    4.15458846227650
H         4.18838549816998    4.93437183055736    3.61034278747913
C         4.23885783708939    6.48706440628595    5.07703832100133
H         5.30510113673162    6.37183626725289    5.21883143364071
C         1.37898127320890    8.55187151884073    6.38005965520977
H         0.30690583620818    8.31723507733189    6.44049852997964
C         1.56741999151633    9.94427331165783    5.77344757877985
H         1.05337376747138   10.70071197080888    6.36460185997119
H         1.16551583558012    9.96596373491298    4.76403431127760
H         2.64628427589529   10.17942319968563    5.72539093821398

