55
CSD_code = HAXZIR | q = 0 | S = 0 | Stoichiometry = C20H25N5NiO2S2 | MND = 6
Ni       -2.07272614751146    4.84937522654127    6.00286975845752
S        -3.62876901154175    4.76668963992961    1.92843450265503
S        -4.59805542916333    1.84527215804237    8.14472269121402
O        -1.62675211657073    6.69271730313851    6.99538560331537
O        -0.14061816206742    5.69385432347028    4.86042861072411
N        -1.09241730912536    4.01862641605868    7.27192960362092
N        -1.89954117298457    2.63915711681633    4.89775617739763
N        -2.95030388457185    5.49551495651555    4.53457155155432
N        -3.73047905020431    4.11139338364083    6.81951227555504
N        -2.61103221243882    1.97026639327416    2.20876778436791
H        -3.00723715073986    3.08874843169584    2.11270848492520
H        -2.77282528931132    1.50941181601831    1.31303703881884
C        -1.40761096136585    5.59194135699910    9.10079187568447
C        -1.60138095940669    6.73436598800444    8.26047236871917
C        -1.67675504981233    8.01878429909059    8.90393577183686
H        -1.77484328182812    8.87571228049914    8.25369628373397
C        -1.65821852821540    8.14931511499995   10.24828456580238
H        -1.73098066955745    9.12804018638801   10.70363016992725
C        -1.57195701814909    7.01774889335874   11.10448751323361
C        -1.61584603855282    7.16404942231535   12.49876494582614
H        -1.69421969547090    8.15990532336247   12.91257401142453
C        -1.57369258445542    6.06985883282727   13.32433297132080
H        -1.61054121506066    6.18779247354729   14.39727572715435
C        -1.50506537648363    4.79333318696618   12.76460571481201
H        -1.50257109210055    3.92723147304578   13.41102330918567
C        -1.45700056637055    4.62665128995071   11.40258615079968
H        -1.44840367512833    3.62300054696914   11.00486382137119
C        -1.46220265333166    5.72852659549076   10.52864369168805
C        -1.01969229442870    4.36439559750821    8.51927922760296
H        -0.52762717119426    3.65986260597614    9.19275282442200
C        -0.40323856061462    2.81634896780147    6.84098616858847
H        -0.04750741705157    2.24867896395703    7.71154958819738
H         0.47674343476924    3.11624907315554    6.25799454868694
C        -1.28582666999610    1.89126719371631    5.98722111691591
H        -0.67475904838051    1.04459234888261    5.63472068134931
H        -2.07953971914501    1.50306462058426    6.62732525064640
C        -1.01576361359158    2.91796244818324    3.77123430661630
H         0.01687818822951    2.86603053862825    4.11489637768444
H        -1.18545832276004    3.94061725384416    3.42777539737173
C        -1.18465140803426    1.99247168721583    2.56069611557104
H        -0.60178050898019    2.38542339878955    1.72665237087327
H        -0.85091649303395    0.97223758983866    2.77731772768217
C        -3.33863726751862    1.30909986195021    3.30373204108554
H        -2.89982725449229    0.32384485028097    3.49008621818868
H        -4.38694708117010    1.18359337956936    3.03231821330579
C        -3.24771248792636    2.21809753455893    4.52917281100672
H        -3.85053495875901    3.10625399626374    4.32879822985368
H        -3.70929970395562    1.71880628356985    5.38057470723670
C        -3.25622154126718    5.21927473149807    3.44537229986998
C        -4.08089991222833    3.16441709205508    7.42289807034376
C         1.15309088701802    5.81240936572651    5.41149352479570
H         1.12341208325173    5.94863289996428    6.49629275719681
H         1.68679140484934    6.65569193811345    4.96127331027105
H         1.69790268635135    4.89624296990630    5.18058345809262
H        -0.61163094843609    6.51964837949985    5.06320968142785

