103
CSD_code = HAYBOZ | q = 0 | S = 0 | Stoichiometry = C42H54N2Si4Ti | MND = 12
Ti       -0.20969327886124    6.29500922386956    3.96613070768071
C         1.62662699329518    4.01645787782537    3.31130482287513
C         2.99109927742288    3.60837499035727    3.31245672755559
C         3.40835646770161    2.51960285025821    2.56054091974474
H         4.44908951484725    2.22977336527127    2.57566213367651
C         2.49769706023818    1.80266044050024    1.78876474926129
C         1.15228866443768    2.19574585286406    1.78498686281186
H         0.44589072378899    1.63278606551496    1.19244801944903
C         0.72756951140248    3.27394595727838    2.52456104498615
H        -0.31746011652915    3.55635366026720    2.53256661949233
N         1.22908119106176    5.07054944954050    4.06989859713508
C         3.91603416437673    4.34709044459822    4.08426387998629
C         4.65149508679660    5.03468290660686    4.75927879641783
Si        5.83253344432370    6.03784471639442    5.77645290842035
C         4.86997261820599    6.80014928614548    7.23860966454520
H         4.23919400251622    7.62394445711024    6.91658622563235
H         4.23253374911280    6.06486639402550    7.72106474783115
H         5.54769308824278    7.18972389845994    7.99287832711005
C         7.21320789601014    4.89187842135157    6.41444667103324
H         7.73276757320225    4.41093079688105    5.59128350716402
H         7.95035158841902    5.44106373582239    6.99349314284164
H         6.81133627059000    4.10858004427870    7.04992617972276
C         6.55454863854137    7.42132137320602    4.68009666806438
H         5.77063149732574    8.05286246213864    4.27217276710376
H         7.23169296221370    8.05928194487865    5.24113356173008
H         7.10922068265280    7.00831864371373    3.84303579343009
C         2.92608523190832    0.69467084261196    1.02664814799408
C         3.29775598406282   -0.25449234418817    0.37350699243050
Si        3.87147396073767   -1.70890165834386   -0.62058085177725
C         5.19068432638793   -1.11360469298458   -1.86346883156123
H         6.04131583794600   -0.67425062455723   -1.35108433166173
H         5.56110328900227   -1.93198408755123   -2.47452113527084
H         4.78709730967155   -0.35950999126695   -2.53248654275093
C         2.37496618924164   -2.44526768012783   -1.54514113211953
H         1.60911851305732   -2.77582929257072   -0.84995270986474
H         1.92252838172398   -1.71188057115382   -2.20587660938833
H         2.66198445147611   -3.30076601415715   -2.15019312877936
C         4.62021468508455   -3.00262441567577    0.56426063147481
H         5.45795603026316   -2.58874466379775    1.11744487410488
H         3.88587793988032   -3.34168469300866    1.28871573084089
H         4.97979285405500   -3.87527373409717    0.02613136378900
C        -1.22050652830050    6.59900992741398    6.11337598844215
H        -2.09399581683395    6.06664502893188    6.46857578820153
C         0.11825509098844    6.25489427743514    6.37702520642238
H         0.45164264728735    5.40593639825532    6.95914801270344
C         0.93909962104755    7.30137512897818    5.89878835619168
H         2.00830983028879    7.38462266658915    6.04990427912730
C         0.10652257416307    8.29505876738463    5.36679418658327
H         0.42941848965735    9.27528756439882    5.04551257732141
C        -1.22688253298283    7.85141424108496    5.46243569850203
H        -2.11207994899051    8.43230074894169    5.23318203801472
H         2.02273100907487    5.38975671650168    4.63515789013479
C        -2.04644428675020    4.01676765699014    4.62044487286724
C        -3.41097999113067    3.60890295078580    4.61923537582161
C        -3.82846577034717    2.52020221647419    5.37117085102926
H        -4.86927818192413    2.23064663540933    5.35614023097953
C        -2.91787856373448    1.80302695384049    6.14283297281964
C        -1.57238824558734    2.19583473227145    6.14652960788440
H        -0.86611459900966    1.63276791494618    6.73911351839931
C        -1.14748411720376    3.27398427263613    5.40702472814403
H        -0.10238309584752    3.55611534829034    5.39891791403244
N        -1.64867230894841    5.07081707290468    3.86191302722335
C        -4.33540107369138    4.34724070435720    3.84644905197744
C        -5.07130708926297    5.03622311437062    3.17332710313688
Si       -6.25165669132328    6.03929956083909    2.15525978486612
C        -5.28848051673818    6.80150415353146    0.69342853570927
H        -4.65776748084803    7.62527490606082    1.01564393730551
H        -4.65090944068264    6.06618657889254    0.21119993949744
H        -5.96588369191334    7.19111626346417   -0.06110748581420
C        -7.63234240311722    4.89368315887260    1.51665335185657
H        -8.15231972135848    4.41277288603077    2.33957330256026
H        -8.36914913502805    5.44308979771229    0.93738519064260
H        -7.23042013986908    4.11035967435701    0.88123614088621
C        -6.97372225283878    7.42287689554750    3.25142498515200
H        -6.18978162640678    8.05423740286127    3.65958505254463
H        -7.65058229368075    8.06097464853109    2.69020220653277
H        -7.52869338823857    7.00992933113597    4.08831404376715
C        -3.34609469122403    0.69555736864343    6.90579999351308
C        -3.71692428277656   -0.25410178942330    7.55871095062083
Si       -4.28923969489967   -1.70879830002064    8.55317918325601
C        -5.60790052322285   -1.11442303808092    9.79709021177387
H        -6.45931069742349   -0.67585984548240    9.28532723630213
H        -5.97713943752551   -1.93305347354040   10.40852265628839
H        -5.20444027317047   -0.35991060071012   10.46571980603562
C        -2.79140360539748   -2.44373598571981    9.47677667285249
H        -2.02568045499100   -2.77349456804229    8.78107056444959
H        -2.33922122976166   -1.70996750277101   10.13727092734328
H        -3.07714877220284   -3.29956224062904   10.08196492915328
C        -5.03774562036239   -3.00330836248958    7.36908805293378
H        -5.87642652017687   -2.59026407696636    6.81671001771055
H        -4.30372496592883   -3.34159858717168    6.64395500125232
H        -5.39591348820010   -3.87631566482551    7.90757858976737
C         0.80126743190715    6.59957629245942    1.81904706933863
H         1.67465814864755    6.06714046948905    1.46371085544730
C        -0.53756036802189    6.25578837351203    1.55529873075689
H        -0.87110863062927    5.40707128423203    0.97291704625539
C        -1.35820603314829    7.30227690326892    2.03387007167556
H        -2.42740155836944    7.38577388256994    1.88279661313578
C        -0.52543650394852    8.29563153141019    2.56618243196042
H        -0.84814580843273    9.27580924921514    2.88780690925020
C         0.80788167419384    7.85175809037903    2.47040961909962
H         1.69318840137737    8.43238728071979    2.69988883617682
H        -2.44224508346024    5.39023137537317    3.29666224907193

