33
CSD_code = HAYDIW | q = 0 | S = 0 | Stoichiometry = C14H13Cl2N3Zn | MND = 4
Zn        2.09975019751689    4.74457649552961    6.63196943071590
Cl        3.22254375098341    6.31265506308467    7.65977030259067
Cl        0.19050711170959    4.65929652598292    5.52076819522833
N         3.35515339219822    3.33381398356843    5.73408054795285
N         1.69297041208044    2.95108790370961    7.74503524442271
C         4.96545492753824    4.48639222190864    4.29543138708384
H         6.04152743271423    4.52245159410775    4.45234345516488
H         4.50760955437695    5.37508871296647    4.72434105302773
H         4.77750389539656    4.47254043020972    3.22258146971252
C         4.39528470198867    3.27637356935624    4.92896165732250
C         4.81085762975969    1.93661183431598    4.81324052120226
H         5.63609798085902    1.56623348510998    4.24036574506994
C         3.95078622409070    1.19701468906090    5.59027989250610
C         4.00141344453263   -0.26176541998334    5.86190825757795
H         3.80459065762716   -0.47541346920336    6.91062880073301
H         4.99348922154006   -0.62827855747321    5.60949712342333
H         3.28199178329407   -0.80421315727139    5.24821877063898
C         2.00547535818782    1.89778109028859    7.02340950032188
C         1.29737295342956    0.68234710600991    7.10947301223829
H         1.52662121582427   -0.13511048849402    6.45014768727723
C         0.26673067060117    0.58999773393991    8.00416852567622
H        -0.31089152801324   -0.31967502841904    8.08140470339696
C        -0.06652279296134    1.69139238058868    8.81634231392582
C        -1.11532425874069    1.67714491730499    9.75658409246186
H        -1.68356830198550    0.76801643415687    9.88781112025492
C        -1.40742424215951    2.80106051177857   10.47894077212064
H        -2.21542156395216    2.79091402396422   11.19479048369791
C        -0.66621355203378    3.98043979830718   10.29560510241574
H        -0.91710350631210    4.85655379687100   10.87376881564591
C         0.36139727623836    4.02800888943513    9.39407281775575
H         0.94242845260937    4.92660162589581    9.24121276513415
C         0.68136543724012    2.88696189156914    8.63502493166568
N         3.06374606381096    2.08119941183288    6.13322150163573

