52
CSD_code = HAYGEV | q = 0 | S = 0 | Stoichiometry = C24H24AgClN2 | MND = 2
Ag        1.53667534951282   15.92694487655288    2.27234456779727
Cl        3.18355036530879   14.40413418157434    2.00153790346098
N        -1.02662512584756   17.49151729912083    1.45148361817737
N        -0.01752116026594   18.60389460850579    3.01312970088645
C        -1.76880244182643   18.63729620109947    1.63931275260758
C        -2.90392900128222   19.13766399018811    1.01880054384504
C        -3.37036916313118   20.36337914045692    1.45315773902510
C        -2.72686503936829   21.07313770384798    2.46618019418924
C        -1.58477359358972   20.59071203343148    3.07575082951303
C        -1.10865741949303   19.35990277039431    2.64715042632489
C         0.04292680209764   17.46785545338428    2.28888801381843
C        -1.34422707916879   16.45659816020204    0.54773283947247
C        -0.37796483590810   15.98014761847610   -0.33274263835065
C        -0.69340968234405   14.94990690209932   -1.20185861766558
C        -1.96542758850004   14.40204322424045   -1.20228977084570
C        -2.92795747484154   14.88512715586564   -0.33162676893021
C        -2.62155586836644   15.90906595864834    0.54676669841380
C         0.92619593792266   19.02581359591181    4.03107679497168
C         1.70393062965271   17.88393879562236    4.64357795453873
C         1.09840637722906   17.14537826560582    5.66824755204084
C         1.83774000596038   16.16832868833965    6.33544298047329
C         3.14988505852096   15.94289064625317    5.95138306154132
C         3.75187429209967   16.63651095639224    4.91456092655764
C         3.01700331462584   17.61402971718200    4.23326623390053
C        -0.32665384916797   17.42102929443511    6.06585154970481
C         1.25575984685680   15.36795898461127    7.46401776178976
C         5.16168155593087   16.31048067883289    4.53205633502981
C         3.68251735195111   18.37511083156300    3.11694353870828
H        -3.39399503534439   18.59641405529094    0.22490944719679
H        -4.25167752383270   20.78518685866993    0.99511695815891
H        -3.12633592634743   22.02729669830618    2.77368424278744
H        -1.08354753458902   21.15499278584565    3.84636011070091
H         0.60461711054558   16.43709386639427   -0.35665523508927
H         0.05808135144839   14.57941251538231   -1.88163541309972
H        -2.20732676497810   13.59911783898039   -1.88172361968107
H        -3.91986090603233   14.45865088508387   -0.32818575183779
H        -3.36184139476813   16.27223404494108    1.24465209237518
H         0.35765155743276   19.53370467818248    4.81573873024299
H         1.60771219751779   19.76254774331883    3.59504979667583
H         3.72311197629129   15.18939780987045    6.47266840401765
H        -0.37678617449642   18.27195000631508    6.74812749061153
H        -0.75676929781318   16.56352981830170    6.57254070908121
H        -0.94882705894803   17.63674093650009    5.20079023215393
H         0.45042979082716   14.72574336961205    7.10755791702141
H         0.85680803081644   16.01878696830125    8.24096299268324
H         2.01949269023047   14.73342950814170    7.90617289748163
H         5.16102037013169   15.78169067399493    3.57860139049681
H         5.61582834975464   15.66065051709306    5.27543256465707
H         5.76899000807929   17.20798084731042    4.43252975578367
H         4.27927704461152   19.19637227095756    3.51867859985235
H         2.96631491365163   18.78106046465654    2.40565767382069
H         4.34842466124841   17.71321710570624    2.56912529291367

