24
CSD_code = HAYGAP | q = 0 | S = 0 | Stoichiometry = C10H10Br2ORu | MND = 10
Ru        4.15982335715687    2.74607028510255    1.96835216953959
Br        5.34861552172382    0.56849540315959    2.40286164200646
Br        4.55706764992272    2.14751470345812   -0.44991042963467
C         2.27692837643079    3.94306219265288    2.55239720742333
C         2.54970940311243    3.06199147770534    3.62889377280136
C         2.48447647661430    1.73892926258559    3.14271703664560
C         2.18964563111000    1.79217481590470    1.75062263885192
C         2.05174713913052    3.16477486575206    1.39085769739787
C         4.72697689679289    5.52686267448633    2.45418318578001
C         5.18488078855381    4.90196226209082    3.77356900974827
C         5.71137957463053    3.56424705606989    3.32666926190347
C         6.08350515871643    3.66081399772579    1.96328912686542
C         5.21059525850019    4.62651039102561    1.39324662113886
O         4.12213198103871    6.56472704125073    2.32895370992020
H         2.14082668318866    5.01168329986218    2.62516799748128
H         2.66624712501712    3.33700350999593    4.66602676685577
H         2.56086363075288    0.83803837195549    3.73680328118450
H         1.96260309697444    0.94047880699751    1.11877411764264
H         1.71856518471579    3.53594559496078    0.43111412248250
H         4.40565159669919    4.89401649663455    4.53499591864878
H         6.01181154778107    5.50085818674553    4.17261029214687
H         6.24848817369728    2.93113660382747    4.02804918830441
H         6.91076936040580    3.15724798071073    1.46124726910079
H         5.26609038733352    4.96625471934014    0.36330839576397

