58
CSD_code = HAYHAR | q = 0 | S = 0 | Stoichiometry = C24H30N2NiO | MND = 4
Ni        2.69967821661688    6.30565830471869    4.92553852935692
O         3.59260802652029    6.12441812829016    3.34158266476855
N         2.53859167167155    4.21782286007105    4.93297673136070
N         1.85236227376321    6.39113661117812    6.61446853209907
C         4.03340203060523    6.93008554795952    2.39882931516628
C         3.59423159052229    8.27062316944050    2.31445403227035
C         4.04277116220267    9.07671477583363    1.28527627747155
H         3.70533265111057   10.09813076891753    1.20221977077719
C         4.93033882940443    8.59270479052539    0.34364454840121
H         5.27769293404637    9.23164726656919   -0.45558021990797
C         5.37371617877716    7.28603281927546    0.42847965326187
H         6.06885908239822    6.93760210713621   -0.31833360692977
C         4.95002162580659    6.43515407842781    1.43453068566738
C         2.60267537189696    8.75930139816903    3.35947446257382
C         2.58654127910300   10.29215881300651    3.46050431805539
H         1.95920222026063   10.60264966073714    4.29465463436961
H         2.17783977275046   10.73521204541051    2.55575013320461
H         3.59069755892124   10.67710180755682    3.62095076695709
C         1.19225710574074    8.27692499963262    2.96908396882574
H         0.44621864579849    8.69490674775410    3.64376588527527
H         1.15526606747625    7.18380002529182    3.02957195371471
H         0.95482337698168    8.57663478893553    1.95039561567039
C         2.96537842675280    8.20570461876163    4.74337777708378
H         2.34274604634684    8.71350352346456    5.49721886842863
H         4.02400722281315    8.42365112509007    4.96131013695561
C         5.43314567785509    4.99046357854339    1.51388824552213
C         6.42724808818319    4.62513604194779    0.40640250526357
H         7.31922701207094    5.24534014439144    0.45756935604281
H         5.97703182130370    4.72854342866114   -0.57825376657356
H         6.73204438149626    3.58651831911715    0.52872468112826
C         4.22467920001213    4.05366758454239    1.38376053418679
H         3.48878894985657    4.29137051095686    2.14445667645324
H         4.52972843938055    3.01399553915595    1.49946457966601
H         3.76204547206306    4.17486695346764    0.40607783098011
C         6.13373116874145    4.76376129301731    2.86021824477902
H         5.46356339516187    5.01480076507190    3.67614923680663
H         7.01756588452694    5.39476978429113    2.93079288461674
H         6.43820634694899    3.72255740032097    2.96107240239074
C         1.64168106471265    3.63064427175490    4.14694613414916
H         0.76339660359652    4.21355460384919    3.89673343245106
C         1.79327539735850    2.34353820347904    3.65852970845171
H         1.03841160408889    1.91370053706116    3.01899868328323
C         2.93318570203080    1.63307864574873    3.99735260494465
H         3.08958140688828    0.63070558559609    3.62696551671609
C         3.86777606319642    2.23954197217409    4.82015776010910
H         4.77158081924860    1.72687359605323    5.10998976034129
C         3.62750256475580    3.52952638193572    5.26231112220062
H         4.33887658085185    4.02946150605113    5.90887877119971
C         0.52301347709637    6.44609029451603    6.70371665528731
H        -0.01281121688319    6.66852171600586    5.78922267874318
C        -0.16091841842102    6.24622429725466    7.88936461300313
H        -1.23827352623782    6.30071980158125    7.90755897129355
C         0.55963316766913    5.98345461114959    9.04429632362779
H         0.05831854357910    5.82679768512649    9.98738938976924
C         1.94250641273986    5.93746447340364    8.95672934085919
H         2.54809025499713    5.74540038273595    9.82874814492064
C         2.54346758639487    6.14864413128517    7.72887533531251
H         3.62254070642996    6.13578517762719    7.63576620722162

