41
CSD_code = HAYLOI | q = 0 | S = 0 | Stoichiometry = C12H23N3NiS2 | MND = 5
Ni       -0.65905470042037    9.14945035197498    2.98682816833336
S         0.45298337684509   10.62717396998472    1.61181073170449
S        -2.38785713243360    7.62464748615991    2.81151372185175
N         0.62225479115268    7.90792911295937    2.46509955739611
N        -0.19147408857659    9.09296177007767    5.14602576419365
N        -1.94277864272756   10.40768651457837    3.37596018372574
C         0.61150602153211    9.20179940981856    0.47533792962460
C         1.07874383076545    8.03740927510593    1.27519682771299
C         2.08027918855645    7.10555422013961    0.66842156351822
C         1.13631825278947    6.83161341950768    3.28883265305700
C         0.59283955926119    6.82028940308957    4.71777334888091
C         0.85120101628242    8.12468118824743    5.47432713140551
C        -0.01450148094863   10.38883961829512    5.79481838252511
C        -1.23601036408908   11.27926528186700    5.57075589166861
C        -1.49104064886057   11.59046719990776    4.08772397578692
C        -3.17621225805155   10.23578924677726    3.08773366067255
C        -3.58242582695092    8.95442685512911    2.45071884502425
C        -4.26520842282310   11.24066142327038    3.34439671150004
H        -1.07428591658700    8.69551914234090    5.48338290745497
H         1.30463196087851    9.45972289132957   -0.32794477545517
H        -0.37772388158378    9.00142327183472    0.04763196346868
H         1.73246025570871    6.07519154386103    0.74484335769163
H         3.03057690559783    7.17524932975712    1.19981229428835
H         2.24779630301039    7.34671420193995   -0.37709161523964
H         2.23156893756533    6.91307318136049    3.32673738950154
H         0.88082399149056    5.87187563186504    2.82183257898418
H         1.06524865903133    5.98894956136172    5.24368554319165
H        -0.48361761592483    6.63721589922730    4.67877433873952
H         0.87393714194958    7.92867862307644    6.55938530874602
H         1.81905607776720    8.54691666675302    5.18641584832989
H         0.87132580733128   10.86699887826061    5.36655817050354
H         0.14597225169439   10.26735614159168    6.87992091914335
H        -1.08071389897464   12.22323450892322    6.09528963504978
H        -2.12017486681639   10.79527381686495    5.99664213904640
H        -2.22377986099908   12.39933953378282    4.01526513176218
H        -0.55630734752079   11.92429961871276    3.62855128635714
H        -4.56626783629915    8.63396501698387    2.80299920545629
H        -3.63077418314019    9.08157832746807    1.36401153569625
H        -4.37780485554561   11.42536028382512    4.41208638809661
H        -5.21056404512051   10.87269577118421    2.95551047075466
H        -4.03524645481570   12.18632241080461    2.85432492984991

