57
CSD_code = HAYQIH | q = 1 | S = 0 | Stoichiometry = C25H25FN5Os(1+) | MND = 6
Os       14.71450274210423    3.57596510525722    9.96515759163454
F        15.75485999859789    1.91153589100137   10.31457179361238
N        13.63924124577839    5.29474266444081    9.60473299853838
N        15.78532391583340    4.43829081019989   11.52631943128580
N        13.75973113681179    2.52682986764423    8.44228165395465
N        13.32214098074831    2.79192832049080   11.25756141142079
N        16.26564413563232    4.10116276361334    8.72438983162460
C        13.88762675785415    6.08914701418804    8.54850626297515
H        14.69302251817727    5.79306777150364    7.89165071323564
C        13.19017299666873    7.24730239215944    8.26757449171514
H        13.45467403854957    7.82857623580675    7.39873492564979
C        12.16057488965082    7.64506875058312    9.10731429600587
H        11.59514275677954    8.54227337156092    8.91680638671703
C        11.88921954568328    6.83827640983499   10.20226652743021
H        11.10187534085437    7.08827654143317   10.89531113177767
C        12.63865844671370    5.69697034494944   10.40811928614661
H        12.41386779896629    5.07230993365052   11.26076813248416
C        17.04416985702134    4.01908993925505   11.71883777939489
H        17.42116739033889    3.27819282722843   11.02823520395853
C        17.83937279407071    4.45919803494725   12.76053387514737
H        18.84205722143995    4.07669098359976   12.86199358375131
C        17.33181739217008    5.38351559149844   13.66003768794507
H        17.92582578133941    5.74726735824085   14.48307994720982
C        16.03006639699616    5.82159351999295   13.46858908111856
H        15.57910559491445    6.53700866239447   14.13746405948057
C        15.30170904051486    5.32644867886952   12.40359082999340
H        14.28881626433200    5.66962450046904   12.24763961531444
C        13.35974175185101    3.04337228343697    7.27378076522570
H        13.49115305368085    4.10725703564631    7.13614615811375
C        12.78713434742538    2.29365878008523    6.26386546198855
H        12.48555795265462    2.77440694969088    5.34707903758752
C        12.61384473645705    0.93020581967994    6.44842957630971
H        12.17337865305771    0.31627302668304    5.67925069475033
C        13.03066542017365    0.38493919943363    7.65260029166014
H        12.92890964703740   -0.66974741567084    7.85071582409143
C        13.58970273379263    1.20789892263032    8.61247970205156
H        13.94282377160486    0.78810503471975    9.54365789304822
C        13.75263475409850    2.20895050377137   12.38437349332840
H        14.79836646626925    2.33547490500831   12.62650856507685
C        12.94007958844123    1.44955942616343   13.20530193226767
H        13.35157978192323    1.00325380360358   14.09602185162077
C        11.60813803178725    1.26929714194034   12.86554524779929
H        10.94847519188858    0.68203187987396   13.48371408023309
C        11.15263411040869    1.86706800188411   11.69929612942547
H        10.12765434632614    1.76003563539045   11.38222284958817
C        12.03152921721534    2.60814921695198   10.93434313820189
H        11.68292898055525    3.08240157052261   10.02465253371954
C        16.95357535356428    5.24884448356912    8.84051710186648
H        16.53631687472111    6.00496161930887    9.49484798281072
C        18.13446844577610    5.50031659471145    8.17027444202009
H        18.63570195579291    6.44508758590369    8.30719715500519
C        18.65698793114043    4.52709432241879    7.33078563179316
H        19.57773737193740    4.69111214705452    6.79459405541154
C        17.95728425659276    3.33643003219577    7.20931183555093
H        18.31914987001216    2.54121030023779    6.57798229588818
C        16.78053934548378    3.16641022363761    7.91438862775023
H        16.24021907979340    2.23278668470982    7.84674711628606

