25
CSD_code = HAYSAD | q = 0 | S = 0 | Stoichiometry = C10H6N6PtS2 | MND = 4
Pt       -1.37055264408630    4.10304681368595    6.78526241209238
S        -4.87361865890246    4.83997862081402    9.68158731674652
S        -3.67431701984347    0.32909218671803    8.07938725778033
N        -0.58351552203531    5.85812540869831    6.39872276964035
N         1.16295114665237    6.88277916505314    5.15508062755034
N         1.85991275636517    4.31509132965028    4.27064413315146
N         0.05370872694468    3.49626407893637    5.57966165266031
N        -2.73040913652031    4.81127504778256    7.95870922211150
N        -2.06383978284560    2.32765496483297    7.09199206208005
C        -0.95773563338115    7.06085312234273    6.85203406247810
H        -1.80623304518256    7.08072841329602    7.52441254375660
C        -0.29050026372203    8.20865066130635    6.47608499830716
H        -0.59593885302847    9.17356351173938    6.84362344266271
C         0.79124112482930    8.06249276546931    5.60342176184170
H         1.37041677197827    8.90643291226806    5.25724886576800
C         0.48285690529546    5.82297535737905    5.55233223947022
C         0.84247609350003    4.49409138356882    5.09303058680078
C         2.13998088412137    3.08789753007729    3.88793078058649
H         2.97884776183901    2.97960792479081    3.21555525159707
C         1.39232312550865    1.99269651639280    4.32906410177026
H         1.62028734864547    0.98777768530737    4.01664305226001
C         0.34260698639046    2.24951955439945    5.18704118744095
H        -0.28902137523678    1.46172006736742    5.57797800946211
C        -3.65865261125298    4.74153375044448    8.69440173686908
C        -2.80057508603203    1.52325122767970    7.55854992511713

