57
CSD_code = HAZCOD | q = 0 | S = 0 | Stoichiometry = C24H26Br2N4Pd | MND = 4
Pd       11.24855234245778    7.88570508832321   12.85483860425676
Br        9.11487295401803    7.73611290837487   14.00027858822615
Br       12.43622187086197    6.95514453525171   14.73009630893944
N        14.21296327640573    8.07224709757697   11.67968332319317
C         9.46689710339177    5.43419085498049   11.09537670732951
N         9.53912090461221    7.81907330644692   10.46251008209086
C        10.33097026359940    8.58102288596250   11.24291993705492
C        13.01513050102988    8.54131537381567   12.06708733898119
C         8.82127875298712    6.65194512876261   10.87675523196499
C         8.69971134877969    4.34077532476857   11.47933259311568
H         9.19217633916690    3.39800419773813   11.66430388467362
C        14.51149324943304    6.71925498376607   11.35075641798699
C         9.29282287917248    8.46334652975898    9.27578699240471
H         8.70579548578967    8.01931874838539    8.49829328401717
C         6.77048112417291    8.12538769486182   10.97549516727860
H         7.24772587282370    8.81762834614019   11.66924757654236
H         6.82442657566162    8.54673466878638    9.97250642500763
H         5.72510046025860    8.03634329824324   11.25548344859062
C         7.44195494461385    6.78919885256954   11.07243178891419
C        11.20810055507618   10.93546791444207   11.00501791750437
H        10.43422159952025   11.69390407307309   11.17806612228763
H        11.86391103707129   11.29182917118250   10.20028344521008
C         7.33419893818288    4.45213695199189   11.64422385053238
H         6.75487854806535    3.59383939414609   11.94812123299359
C         6.71355510274381    5.67182503641075   11.44867423146007
H         5.65165337122095    5.76905338546980   11.61463478704054
C        10.95272319856686    5.28837157575032   10.97266350970204
H        11.32743994102312    5.78978922206748   10.08284489049032
H        11.44922764361259    5.72311951367183   11.86771843368061
H        11.23251932218004    4.23902962029401   10.92819177831985
C        15.25634005465367    5.92400684707840   12.22045762863242
C         9.93125521199039    9.65194935312943    9.32569550519967
H         9.98963889687523   10.44599492862941    8.61018181319412
C        15.49210416965563    4.60568847165656   11.84606691697766
H        16.04839769739226    3.96576580765522   12.51366223764786
C        12.02931120902826   10.78138384470744   12.29264498460168
H        12.40836315328345   11.76337426003532   12.58514464746476
H        11.39338308447233   10.38597380489484   13.11042526083916
C        15.78374262095024    6.46112565376880   13.50791275695066
H        16.23600728916768    7.44221279530832   13.37515054160805
H        14.96625258321305    6.56665019667317   14.22319186133840
H        16.52138031636892    5.78505264431216   13.92952878831223
C        15.02886983939287    4.11153020756958   10.64256341524805
H        15.21665955368100    3.08286762611486   10.37413456785549
C        14.34485463258339    4.93628885830680    9.76647759921299
H        14.01448144492248    4.55700057560183    8.81077602361341
C        13.40736684285307    7.18392725246921    9.13669151232083
H        12.58128679961524    7.71698319612106    9.60839270004125
H        14.11858525539354    7.92830478063887    8.77395735733890
H        13.02634800431034    6.63366228667200    8.28011186838071
N        13.13991867848032    9.88724618288915   12.07905945127816
N        10.56418878526827    9.71805979341934   10.54825648929099
C        15.08065111249199    9.11155739662758   11.45210890576453
H        16.08947047756710    8.94660622669263   11.13390471292274
C        14.08435821843396    6.25508143325749   10.10441431506877
C        14.40496621159265   10.25588342410216   11.69981755744576
H        14.71799234984363   11.27870646866837   11.65404668166218

