98
CSD_code = HAZDES | q = 0 | S = 0 | Stoichiometry = C41H47CrO7PSi | MND = 9
Cr        4.12891712781912    8.05957262352443    3.45831736181229
C         5.69674970003139    8.89567738538076    3.11045552971990
O         6.70389657958713    9.39743592400324    2.83004915807459
C         4.11030100810434    8.32357351773480    1.66909846503113
O         4.16455545674507    8.55331802811353    0.52799081172987
P         3.10598065951430   10.06325701815719    3.53833408887217
O         2.60459831167948   10.75775861857118    4.94683048813570
C         3.41711615203852   10.88562179124582    6.04143745028599
C         2.80900839540057   11.13592526314967    7.26720697339605
H         1.73381143521621   11.21694163422525    7.31320678576043
C         3.58597785306206   11.28081514042770    8.40231286263326
H         3.11023371168231   11.47552579578107    9.35187205423884
C         4.96500467332779   11.17570589619216    8.32322090425772
H         5.56779490025891   11.28741885987385    9.21155980417813
C         5.56646831696829   10.93331463033221    7.09965185610583
H         6.64012592825076   10.85786796153908    7.02733721926336
C         4.79971254078839   10.78762250971432    5.95653743484866
H         5.25665776315913   10.60211411728748    4.99534196266373
O         3.92205457873777   11.24586156175545    2.81924793412419
C         3.31490298774941   12.45631486238683    2.49341571755454
C         3.30624510324144   13.49962450192418    3.40647775999772
H         3.74991403472958   13.35761114825886    4.38064083211275
C         2.73633629976731   14.71066298399244    3.05170643975930
H         2.72859555174253   15.52429182239913    3.76165100588388
C         2.17742873950561   14.87825482321943    1.79635827267438
H         1.73151714546303   15.82347174457455    1.52524231730314
C         2.19201827472589   13.83198004532445    0.88857181674347
H         1.75832923911720   13.95990003473818   -0.09185500970012
C         2.75830261611983   12.61789252591320    1.23371101231964
H         2.78296722416681   11.78818086079357    0.54468031381132
O         1.69322485633678   10.27188280696209    2.78525112045515
C         0.71566003081001    9.30228286687625    2.78422298889557
C        -0.25249972947072    9.28938414723916    3.77850068697888
H        -0.20881899886648   10.03288523650611    4.55982299521083
C        -1.24914300877365    8.32927231059021    3.75002625142944
H        -2.00294819065156    8.31737093486803    4.52326292775897
C        -1.27814512718913    7.38358738197030    2.73791971749133
H        -2.05445207121223    6.63362292114435    2.72254066697661
C        -0.31180808161889    7.40346819087953    1.74588731796293
H        -0.33357418555730    6.66977134485701    0.95421118448202
C         0.68891532316094    8.35995213048647    1.76563368712733
H         1.44838478344859    8.39858039244676    1.00059117216394
C         6.36004605441772    5.59653301161859    4.09658297032127
O         7.36521255606651    5.94718010343553    4.94745580894157
Si        7.80591313610073    5.47276032377304    6.45156730729468
C         6.30761269439052    5.19657146461140    7.60812388099183
H         5.48858003293006    4.73230744987012    7.06445945617334
H         5.92858749142230    6.11792501402314    8.04027273795956
H         6.56389511138856    4.53782920614173    8.43151606184279
C         8.75870403526860    3.81745426443866    6.43037511078329
H         9.64382595601532    3.86217760526938    5.80281351762556
H         8.13459908741589    3.00601026630563    6.06486465382389
H         9.08509894313916    3.54602536662644    7.42926588613020
C         8.93308756646880    6.92204555051747    7.02118885462581
C         9.38797401960325    6.67917123258558    8.46086210305279
H         8.53543945365415    6.61851905977377    9.13321231660278
H        10.03155517134034    7.49070915214707    8.79903966136022
H         9.94759985585303    5.75026939617003    8.53680448971787
C         8.19252749768730    8.26103431873767    6.95933196522792
H         7.32463158263995    8.25970372598275    7.61701160022771
H         7.86491916708728    8.47083642461964    5.94350643931841
H         8.85256848606639    9.06835289710481    7.27694502564756
C        10.17076501974192    7.01986700265061    6.12630325060485
H        10.75798354517855    6.10611138472730    6.17404963240238
H        10.80449593784946    7.84720722668342    6.44475113516001
H         9.88091446033359    7.19107019971720    5.09313234514679
C         6.60399845941805    4.73955756270178    3.04079744472100
C         8.02158960218936    4.28566775908780    2.82422386682212
H         8.06326925209784    3.44036256777325    2.14090244209353
H         8.43968931631458    3.96856321103993    3.77979160664115
C         8.87324867086452    5.43518563576430    2.27884602418605
H         9.89380143862546    5.10045377007558    2.10531064302405
H         8.89057962944577    6.25494176409831    2.99064662906228
H         8.46296299655544    5.81175957942994    1.34517974375331
C         5.53987164333536    4.34702377101618    2.19110207645734
C         5.74189035474716    3.36580673717785    1.06539851785983
H         4.76079836824192    2.98749402548842    0.77404177152574
H         6.32831144922759    2.51269233973614    1.41315710837869
C         6.42213576356075    3.99023283551117   -0.15571757958756
H         6.37613999498621    3.30290022677599   -0.99808555773840
H         7.46508048303361    4.21395810976952    0.04514953073457
H         5.92923780807596    4.91806650521578   -0.43712109776634
C         4.26900447501940    4.84218985708216    2.41177652615317
O         3.18550185029849    4.39696386068178    1.66364931453395
C         2.89731968772552    5.17216775679218    0.51355139832593
H         1.95604847668230    4.78801647309274    0.12262137540919
H         3.67601889680667    5.06343424610253   -0.24622617857467
H         2.79303559199530    6.23175399472979    0.76101478235632
C         4.00984917779728    5.78385078532863    3.44164737516071
C         2.70422833900688    6.31098743112508    3.68243661539957
H         1.87684224564211    5.93945408250061    3.09185255463947
C         2.47630488934292    7.18609324397176    4.72881674241329
H         1.46466628896579    7.50011746285353    4.96241354341499
C         3.54714265231319    7.59818922745362    5.56541064217192
H         3.34341824124072    8.22725352623361    6.42454267973220
C         4.82656315623979    7.12154539830350    5.33777670804039
H         5.63646497697764    7.40190478208448    5.99437758331679
C         5.08163105201698    6.16876552799830    4.30699861577148

