95
CSD_code = HAZDAO | q = 0 | S = 0 | Stoichiometry = C41H47CrO4PSi | MND = 9
Cr        3.92399532470259    5.48192823332702    4.93937563537164
C         2.15227532695447    5.35821698863459    5.31071781614563
O         1.01826077684920    5.22707774998044    5.51173938904432
C         3.35564906641358    4.88340234262261    3.32344685284672
O         2.97587560341357    4.38621312600765    2.34550044295125
P         3.59354988302632    7.69369958122774    4.31587628878531
C         4.10623224424869    8.87030853977543    5.61075698822209
C         5.27922567856610    9.61427697425303    5.56297485102660
H         5.89135571074724    9.59930196200227    4.67144904572876
C         5.66050082697987   10.37999621055246    6.65266542534286
H         6.57118261374494   10.96018293485438    6.60831104598879
C         4.88142481818802   10.40270773236949    7.79681291668686
H         5.18116595445889   11.00357977145794    8.64281657907911
C         3.71965786694864    9.64545175998817    7.85922085447294
H         3.11686987673744    9.65482692353163    8.75573565595625
C         3.34140317437558    8.87482106574785    6.77770386253424
H         2.45061838928998    8.25967908493279    6.81441465776279
C         1.92393700259369    8.32908048191842    3.90762973039580
C         1.13205420222485    7.51734886026182    3.10013539611137
H         1.51713458630734    6.55580729761017    2.79027248171018
C        -0.12918747549016    7.93133614693778    2.71538551949999
H        -0.73808021858611    7.29365675243139    2.09228066002779
C        -0.61412250790617    9.16064361481268    3.13327973521218
H        -1.60155315336366    9.48339164726018    2.83791721469968
C         0.16940941303002    9.97415854120021    3.93325411721800
H        -0.20498202299053   10.93327554189655    4.26143375081538
C         1.43469309843281    9.56516326140136    4.31756159296105
H         2.03405799147962   10.20908928900754    4.94609130487747
C         4.46735111136600    8.34462533353811    2.84058576956462
C         4.37253555086513    9.67918964435648    2.45450855671828
H         3.77834472279752   10.36596600762521    3.04117088213268
C         5.03563480579583   10.12093804862924    1.32484823371864
H         4.96270279203205   11.15753700505494    1.02909971438236
C         5.78980763344242    9.23658952266655    0.56872604359397
H         6.30505612816318    9.58649004947834   -0.31376299708773
C         5.87503331676208    7.90523535275888    0.94026973443290
H         6.45309316950826    7.21270379869897    0.34672095321957
C         5.21374471843565    7.46120016915156    2.07207829779104
H         5.25307049908964    6.42199732048613    2.36959720173271
C         5.37899307314848    2.51486008659692    4.32013175087014
C         4.60961523047736    1.42399371097782    4.68145902986446
C         3.92054388695825    1.43272803169254    5.91781988011462
C         3.96809897188751    2.55981089543346    6.71694390639251
C         4.62370271549127    3.74039787582455    6.29400469693969
C         4.54223409209612    4.96790381946620    7.01847622628513
H         3.97627921688570    4.98502388309427    7.94193909789739
C         5.28130176124837    6.07596216114763    6.63144089746524
H         5.32248420419566    6.95546003829799    7.26342806287757
C         6.03297550335037    6.03849934086448    5.43065123543488
H         6.64430207760200    6.89427451011144    5.16065665136148
C         6.05733580127973    4.89136760915402    4.65403671950947
H         6.65886404092964    4.84509910676376    3.75832184742341
C         5.37110475305276    3.71233172616907    5.07664855645199
O         6.11215748548694    2.49253120088498    3.16872803370329
Si        7.68784218563645    2.22441888811852    2.82004698783026
C         8.87885533570382    3.18801212965587    3.96747863491474
H         8.53517830844530    3.14764232126220    4.99814186475217
H         8.97360151045925    4.23589278930546    3.69804216719705
H         9.87608411538106    2.76065600499141    3.94234763257139
C         8.17309784043993    0.38711619898233    3.00753850172867
H         7.99438428801509    0.03523242027943    4.02038897669610
H         9.22742934122513    0.23939792344575    2.79630098943352
H         7.61581026113540   -0.25582837976934    2.33289030622931
C         7.79004692239079    2.81353682625461    0.99358858063453
C         7.24519463426600    4.23652455886130    0.84296305742538
H         6.20588224434525    4.28115148213445    1.15989619257790
H         7.29615274469001    4.55020776564421   -0.19977245382816
H         7.82528556773145    4.94238387242779    1.43542867860175
C         9.24624650659674    2.79065990482271    0.52770485213180
H         9.65840996692282    1.78724362283826    0.60165499038927
H         9.85950404988301    3.45516692286355    1.13177258232042
H         9.31887835443442    3.11108132861425   -0.51123573020958
C         6.97273477112580    1.89072011550756    0.08666889274877
H         5.93346018761270    1.86632932351373    0.40287021575065
H         7.36537673757496    0.87703014046412    0.10994976820123
H         7.00776672413476    2.24358698914571   -0.94384934350170
C         4.51163663911617    0.28508191549192    3.70388188313034
H         5.51132406067316    0.03090878577277    3.35002899061945
H         4.08066556738032   -0.59865184392267    4.16949429496777
C         3.65724151875786    0.69507567887715    2.50142962890134
H         3.58792745774317   -0.12498418182162    1.78973752408538
H         4.09680349115535    1.55495075456962    2.00498688925384
H         2.65446911930409    0.97214619922250    2.81695038915859
C         3.10133582807250    0.26159466858087    6.39078155460079
H         3.00863320106671    0.31600388528807    7.47581975969370
H         3.59107701503012   -0.68178782137560    6.14293341517076
C         1.69298500355087    0.29691992699005    5.79545770871955
H         1.09252771861882   -0.51198202418687    6.20633426808460
H         1.72309356242640    0.19208156208425    4.71515684794728
H         1.21698238344882    1.24395559298686    6.03657759190693
O         3.33463315856328    2.57135991613377    7.95643568572846
C         4.21027305519330    2.34022768331704    9.03818455027534
H         4.66233801854413    1.34257378003628    8.98152896097293
H         3.60670872564706    2.41319222343319    9.94150168133921
H         5.01615056363000    3.08253148395711    9.07767323649176

