64
CSD_code = HAZDAQ | q = 0 | S = 0 | Stoichiometry = C27H29Br2N5Pd | MND = 4
Pd        2.25561936430870   16.36565605850025    9.11051294844311
N         0.89411139602905   18.02897924619413    6.92509593042750
N        -0.29930239042255   15.98887543384133   10.68209678540457
N         0.33417381285626   14.14079666670513    9.77595601551645
C         1.67971945128539   16.98829159435257    7.27246068272267
N         1.70457528178983   13.49150380514966    6.48988043766002
N         2.34396400229412   16.64443070374021    6.15641696078855
C         0.59219464799733   15.46064457160688    9.81648103811493
C        -0.73233967998129   13.84545895669387   10.58586598398656
H        -1.11545295947062   12.85401158246833   10.70064362813727
C         3.38058123801149   15.63897258741030    6.05243228179070
H         4.33654252122699   16.13822739341550    5.86343651879233
H         3.43186283672449   15.11038457573075    7.01945505753921
C        -0.22527192672143   17.32542002763618   11.24702807249078
H         0.57118091412639   17.84990976450450   10.68990703111411
C         3.03742138544720   14.68282227909801    4.94807267899404
C         1.67462704384927   12.78207832387134    4.17446729908690
C         1.06585174284640   18.32708009469319    5.59843994475942
H         0.54655041910115   19.11964456093229    5.10389877235404
C         3.53749626961551   14.80937149191340    3.68301255472015
H         4.26634365583524   15.57781422522998    3.46695121659170
C         2.10670392433833   13.64347970724892    5.23405200877343
C         1.22780960402636   13.15899866302633    9.20196597793584
H         2.05452961342526   13.71452094475439    8.72698457004273
H         1.63144015335315   12.55161248055908   10.02097737703840
C        -1.13034219486314   15.00396346764675   11.15319881700817
H        -1.92181671293096   15.19710673576452   11.84632329396350
C         0.57936338808399   12.27176061010444    8.17513539615019
C         1.97437609429689   17.45087987701880    5.11538331460702
H         2.38160061816211   17.34267233858054    4.13194510979070
C         0.88562308129969   12.49359943337914    6.80111489998475
C         0.34919617400985   11.60547111965891    5.81276387814088
C         2.20129176554085   12.97552204701198    2.87456542461374
H         1.86632768371108   12.32523974287667    2.07931184068638
C        -0.53020175823825   10.57357518504789    6.21906184860730
H        -0.94875784132894    9.92324777867322    5.46451423162965
C        -0.81287700851725   10.39359723804413    7.53894044657728
H        -1.46689857457351    9.59452432038991    7.85458423194986
C        -0.23518018732530   11.22814502513863    8.51647922894969
H        -0.43388731771417   11.01288095365654    9.55641559146634
C         0.76207834564093   11.77960656372865    4.49344876442112
H         0.39613954589349   11.11537603505636    3.72153713685200
C        -1.55818760604078   18.05657551470046   11.10064503556948
H        -1.93988565053682   17.98889855352902   10.08395114013835
H        -2.30111262848369   17.63265704951461   11.77260772359482
H        -1.43150441462470   19.10491188685987   11.35596228716302
C         0.10368886448360   18.78054183964770    7.88179775724207
H        -0.33815361957833   18.03342508538983    8.55428850457332
C         0.20053100956225   17.24386695107568   12.71267716506844
H        -0.54345991544827   16.71874485057547   13.30718803403161
H         1.14996915741894   16.71977644080533   12.79733579415692
H         0.32353784873463   18.24610136452433   13.11316607269240
C         3.12234752749662   13.95218892780125    2.64345671866048
H         3.53903359748581   14.08792461681922    1.65666833493167
C         1.02997706440424   19.70056670333798    8.68144054498278
H         1.81273224664289   19.11196080647209    9.17654517169894
H         1.51561608239853   20.41445784809311    8.01968882632049
H         0.46747425059806   20.24504399666572    9.43492771320734
C        -1.01649219119450   19.56447699667971    7.20930304158706
H        -0.62022790873336   20.39609367516340    6.63181723689143
H        -1.60250151713447   18.92190150274153    6.55522296984895
H        -1.67549534014553   19.97128126551941    7.97203585844910
Br        3.18285084464517   15.53981856979105   11.20066577928087
Br        4.31029487501256   17.60203134324241    8.62499306128361

