80
CSD_code = HAZHOI | q = 0 | S = 0 | Stoichiometry = C38H32ClNO5P2Ru | MND = 6
Ru       -0.66568960797942    6.05765117217630    4.29710217092291
Cl       -2.06277331687423    4.71228166429143    5.63415594697289
N        -1.02030572918221    7.43264921761659    5.17529840738754
O        -1.27924130771222    8.32435641740401    5.87731911145675
P         0.68147656977832    6.60122719548448    2.43643062133338
O        -2.28404083062314    6.18092322040150    2.92056999568622
O        -4.23109529065959    7.96343151414447    3.30811589268689
H        -3.95361354509313    7.13621982251683    3.74528340364102
C         2.19871021374529    5.63965644862554    2.18384617573262
C         1.18930918108114    8.32980618108005    2.17492848831290
C        -3.38387026228703    8.14771670992048    2.26812371594235
C        -2.34724378893841    7.20130856059863    2.08176681478167
C        -1.44916773298267    7.37286348737576    1.01907333325262
C         2.17167363269812    4.43460962528282    1.48680773212511
H         1.24934855738523    4.08389251702754    1.04903434134259
C         3.32124818300379    3.67287126555909    1.37549524585748
H         3.29250736094445    2.73617388883952    0.83899162121905
C         4.50330768499576    4.10433640302217    1.95604280058459
H         5.39653629483029    3.50328412709853    1.87372136034576
C         4.53835178622475    5.30939633505931    2.63980188804180
H         5.45785112028592    5.65329398140180    3.09018897823905
C         3.39286807344556    6.07559568220991    2.75363168492383
H         3.42130598009139    7.01736788973073    3.28242541039764
C         2.22041774561595    8.67103800762067    1.30680579473903
H         2.80191252169553    7.89522310558250    0.82814781213558
C         2.49891402630598   10.00206943632591    1.05586532371659
H         3.30334653395173   10.26358812598855    0.38417032994142
C         1.74383754617664   10.99782743010536    1.65478705775291
H         1.96274875623050   12.03538124710499    1.45164656299862
C         0.70392176910039   10.66271952477258    2.50601044931156
H         0.10401567469532   11.43470808823720    2.96322007870633
C         0.42947262869963    9.33258713592987    2.76517988676804
H        -0.39464909588676    9.06365213106937    3.41611111542470
C        -1.57919316495700    8.46840463438491    0.17713728022046
H        -0.87359423751300    8.60255888394241   -0.63078025301141
C        -2.59879235267499    9.38164274176706    0.36967802564652
H        -2.69259629783544   10.22859101665619   -0.29249617283036
C        -3.50118220419283    9.22570462128250    1.41168136464629
H        -4.29384658045675    9.93824300310805    1.57570603126362
C        -0.32771783098197    6.38455775840778    0.91063149603299
H         0.30982779655757    6.57993414654851    0.04251821827146
H        -0.70823682115892    5.35859726936272    0.88830784939547
P         0.99149303827435    5.10957696722607    5.68217154896383
O        -0.19921862418441    4.44180881277637    3.20063307175577
O        -2.37747538459658    3.06321215996648    2.34783276256592
H        -2.26948058962144    4.03040499897310    2.44791958050517
C         0.48938052950098    4.82556508661893    7.39916080848483
C         2.49493785714431    6.11047825697746    5.91706245894244
C        -1.47508432232529    2.45348066970217    3.15376680524314
C        -0.36952452229954    3.18988608635727    3.62633513254007
C         0.51953724459403    2.61523732008403    4.53695769289929
C         0.07154048507256    3.57530839756711    7.84207417364035
H         0.04523389975943    2.73798021822185    7.16063566768349
C        -0.35196587087634    3.42111810385476    9.14960584859240
H        -0.68216482007698    2.45191092973520    9.49260626828359
C        -0.36958707298215    4.50525325069443   10.01157115386845
H        -0.70786652334261    4.37987655173408   11.02934777556314
C         0.02978702799643    5.75496906577989    9.56512101629993
H         0.00091466977547    6.60379846125001   10.23202327577620
C         0.45475356262496    5.91922054185187    8.26075546967098
H         0.75578838851917    6.89544203581224    7.90155772943686
C         2.45729807514305    7.46673146121949    5.61078903429641
H         1.55030846296699    7.89460898918352    5.19546768013745
C         3.56974413459720    8.26349078841297    5.81630506028244
H         3.53052310269466    9.31497208591794    5.57277692011726
C         4.73083336944694    7.70709967216806    6.32696539938514
H         5.60253299303937    8.32461520263686    6.48375725703157
C         4.77268345615445    6.35746765905108    6.63929848911599
H         5.67648595471557    5.92503370181106    7.04260100066679
C         3.65937063820658    5.56094379143688    6.44255052359128
H         3.69456127948597    4.51333238747750    6.70268948273190
C         0.34727794500404    1.28927610854991    4.91246364864719
H         1.03930458028681    0.83681157057995    5.60983773217688
C        -0.69831180563198    0.55010218068322    4.39137967858831
H        -0.81908915179685   -0.48313771950904    4.67915320824841
C        -1.61414266550516    1.12815197323384    3.52617568231275
H        -2.45596879099660    0.56881181223150    3.15030014641886
C         1.62315655640278    3.48453581009287    5.07102700854836
H         2.33859253176723    3.73084880523204    4.27463735146569
H         2.15148072150899    2.98883416933018    5.89180306320417

