52
CSD_code = HAZHOH | q = 0 | S = 0 | Stoichiometry = C26H20ClN2OPPd | MND = 4
Pd        7.00950896950369    2.03060053492443    2.72108083877043
O         5.39339793994108    0.73634283523810    2.88251315514994
P         8.47607657069407    3.63122027673896    2.43399759206171
Cl        7.87552607646207    1.56869797445525    4.72252311947640
N         6.17828510519662    2.33208808907942    0.96595345524710
N         5.01407715115833    1.67871099317470    0.82591446554746
C         3.06868147401024   -0.76216946301445    2.71342336323989
H         3.69401309510693   -0.83770837452203    3.59060113032618
C         1.90910553833668   -1.50427669380526    2.59735505300889
H         1.61551352738550   -2.17368280389311    3.39260405012769
C         1.12410332277525   -1.38991087529628    1.46121878451934
H         0.21807331787244   -1.97141200130994    1.37054240748678
C         1.49999180988252   -0.53046411205979    0.44000427973984
H         0.88540907650632   -0.44400820401101   -0.44430882369375
C         2.65857845639001    0.21420146409707    0.54890923325521
H         2.96731750635343    0.88679699076708   -0.23530532488871
C         3.45037877005126    0.10104960000009    1.68906458771120
C         4.69674419721233    0.87972180304946    1.83525651387727
C         6.57499409983857    2.99703457127107   -0.07745060704326
H         5.91556943453919    2.93570795567720   -0.94289224454490
C         7.78830368600133    3.74681947327628   -0.28153287079573
C         8.76332337795012    4.04783118182672    0.69236642694690
C         9.92739706615588    4.71830205307457    0.33300348931624
H        10.67600265492993    4.90875696706566    1.09050333858002
C        10.14562525549864    5.12478167723629   -0.97006220267770
H        11.05734750242845    5.63886348798582   -1.23348117162200
C         9.17931655959341    4.86775586524439   -1.93208792812257
H         9.33238482696822    5.18901026239461   -2.95140341436487
C         8.02742739596834    4.19204879731315   -1.59212747553591
H         7.28878246196733    3.98523760121550   -2.35293511458798
C        10.12842595980900    3.45770700936028    3.14872507238928
C        10.75983339184086    2.25027937590806    2.85581605977777
H        10.23788789167789    1.52391921906712    2.23724129530619
C        12.01118516568480    1.98252166847669    3.37262930144504
H        12.50123707675544    1.04616784148651    3.15179171790691
C        12.63027378685516    2.91512332129006    4.19229138738198
H        13.60556409919656    2.70414956336035    4.60506767299572
C        11.99537211784591    4.10673350895502    4.49861335837050
H        12.47491016570722    4.82165614097564    5.15094989529539
C        10.74035681237884    4.38349544725820    3.98210480094075
H        10.23510449722906    5.30471164963456    4.23525651583394
C         7.72562631622141    5.15270333314931    3.09565989206629
C         8.23414339026448    6.42286661230236    2.83961066019999
H         9.11518170704428    6.53703958792128    2.22366074656615
C         7.60203699908713    7.53611664409331    3.36398670447882
H         7.99933687976813    8.52123641686121    3.16826040595361
C         6.45993459613191    7.38993679196722    4.13525307120722
H         5.97052533638201    8.26214650556452    4.54217254544747
C         5.94136162356745    6.12825971774739    4.38053273726667
H         5.04803221127802    6.01779038996553    4.97662986710573
C         6.56864559460935    5.00962749832639    3.86136043709546
H         6.16876815397034    4.00556382912890    4.05833774845647

