42
CSD_code = HAZJUP | q = 0 | S = 0 | Stoichiometry = C17H18Cl3NRuS2 | MND = 9
Ru       11.78562943043663   11.21882995685341   -4.05511412362973
S         9.88291381172346    9.84008578134813    0.39996296296948
S        10.77646805076703   11.57874480723564   -1.86993241860551
Cl       10.89099541020602    9.04492673484669   -3.95160071319949
Cl       13.76364779885733   10.32083803185777   -3.13552890668162
Cl       13.46258982480554    4.80526367319607    0.92584639565368
N        11.89777434689270    9.28203077967778   -1.06867066772552
C         8.29043732810860   13.75972356656120   -5.94374175252140
H         7.26484559803468   14.03540658111144   -5.71211457799013
H         8.29229495907608   13.17811752966639   -6.86358913116665
H         8.86474930537083   14.66946378862928   -6.10949585603551
H        12.62483204106563    9.38635970697234   -1.81451991391070
C        11.82904344313682    8.23609166906092   -0.19369696092233
C        10.94925843308677   10.20675856592394   -0.93084433879668
C        12.43694385327230    6.18512154484830    0.83005696794543
C        10.77137926904853    8.36559443332358    0.71958678215967
C        11.38711607443603    6.30984093939944    1.73971740467489
H        11.23438475118716    5.54299152720343    2.48148765351544
C        10.54543376271705    7.40514989745346    1.69031921486377
H         9.72998819873479    7.50959251649226    2.38681260007635
C        11.38237996501399   13.36644316547468   -4.54026207629897
H        11.14024747532810   14.19538545602461   -3.88172559547478
C        12.67679298428712    7.13747546425347   -0.14471910879883
H        13.48416108339922    7.03967890730365   -0.85122755122506
C        10.66262310674377   11.56608829868218   -5.98938325641945
H         9.88433635871731   10.97559402863742   -6.45718377276830
C        10.32131398985473   12.60380948897881   -5.10809598475100
C        14.48417566258330   11.86352139305004   -6.18118704394001
H        14.57837508159510   11.02023772931854   -6.86172049206793
H        15.09526238699763   11.66409246786135   -5.29989414976333
H        14.87684823594906   12.75875164065722   -6.66442323197610
C        12.01569017819461   11.30291687937829   -6.32794616557236
H        12.24320616189988   10.52998345636549   -7.05496669059760
C         8.88526979345287   12.94330435193329   -4.79086664971695
H         8.87943949063088   13.56153547968480   -3.88529853810555
C        13.05598289776111   12.08213472285502   -5.78684595016885
C         8.05072234870205   11.69100851375076   -4.51535798372647
H         7.10321788204996   11.96909926422119   -4.06137342785395
H         8.58034382191990   11.02604590730627   -3.83327730246287
H         7.83988127866646   11.14654137922325   -5.43266586551280
C        12.72209036774763   13.12279170771235   -4.87815969395123
H        13.50721375754064   13.75822826566787   -4.48476008952660

