37
CSD_code = HAZLEA | q = 0 | S = 0 | Stoichiometry = C16H15Cl2N3Pt | MND = 4
Pt        3.70486449166984    7.52632856391473    1.09090934526113
Cl        1.93017704478904    7.20455655713083   -0.24054356901889
Cl        2.29640118241290    8.38142781978945    2.59783648281082
N         5.33643234842694    7.88347362386320    2.22460102670868
N         5.14373602891764    6.80090962700457   -0.17033471350807
N         5.26528025071265    6.25012902938273   -1.37194766954447
C         5.35515889677251    8.40973455277434    3.44741825254410
H         4.38798888996436    8.62548580220625    3.88292787792844
C         6.53142718016587    8.67225653826788    4.12411733617749
H         6.49583518458353    9.09801554325609    5.11349714136113
C         7.74475149326305    8.38195629963239    3.51210257023392
H         8.67892152748455    8.57830255398562    4.01511390636596
C         7.73157298429666    7.83539643477076    2.24309881037556
H         8.64711178123005    7.59392577017072    1.72786306269364
C         6.50957713568382    7.59382929735793    1.62067931723205
C         6.38213113158931    7.01020755050337    0.30734850106716
C         7.32023373058304    6.56685940852435   -0.63328659112750
H         8.38741357349182    6.60631797933249   -0.56819385346432
C         6.57187180695978    6.08904752699017   -1.69442036663255
C         7.05176960869288    5.53485540479710   -2.95851784973245
C         6.61671071102263    6.04637300640511   -4.17921528530134
H         5.91906225795151    6.87115945725919   -4.19922635067655
C         7.10252039672835    5.52308284299145   -5.36339591314230
H         6.76208173860621    5.92636289902398   -6.30522374498066
C         8.02528835098895    4.49039294211922   -5.34305402340478
H         8.40038974968667    4.08277297655937   -6.26948965260723
C         8.47209186285760    3.98758282162763   -4.13230281454901
H         9.19671580158592    3.18740820220180   -4.11284547631617
C         7.99209097719849    4.50816229734325   -2.94487825536251
H         8.33392534160432    4.11519129888975   -1.99873313978436
C         4.12474535550189    5.69634085405506   -2.05855853493456
H         4.40650566113479    5.49858411162036   -3.09243665647815
H         3.30866055954996    6.42425983840390   -2.01090932318772
C         3.67735084286037    4.41130275252503   -1.36754928730091
H         2.82260710664668    3.99792044055939   -1.89278072756391
H         3.37306497878374    4.63399290128360   -0.34606955945251
H         4.47913203560276    3.67509447347859   -1.35610027268797

