93
CSD_code = HAZQAD | q = 0 | S = 0 | Stoichiometry = C34H50FeN8 | MND = 6
Fe        7.31469576854317    5.43134074692286   12.14751934099968
N         5.92104095257527    4.04029918841487   12.20539754455755
N         5.26779616267679    3.33208479517459   11.31938987797549
N         7.14882641302242    5.21280634778382   14.05318370871244
N         9.41646263087034    7.63073262070234   12.17164296862792
N         8.64815229271400    6.74005653743215   12.75921166520562
N         9.00004484474842    3.02243150777676   11.76080731789543
N         8.04436259423462    6.05542187825276    9.35384376805156
N         5.73870591309806    7.94023940686220   12.22651511609918
C         4.48268939143556    2.45793111791787   11.97744685938908
C         4.65085800317519    2.60998370619292   13.35062972531185
H         4.17863663958505    2.07134056765393   14.14734179737497
C         5.59101767153611    3.63811641552182   13.46617745929373
C         6.27439192279257    4.31220748685694   14.53017878488050
C         6.13373849964896    4.13340466574383   15.90784657342274
H         5.43197352716896    3.40896039730991   16.28865401743076
C         6.90886915283367    4.90384825513966   16.75882202005551
H         6.81501040995854    4.78142943806111   17.82851308824078
C         7.80409195120184    5.83210217239292   16.24928209667350
H         8.41381407988831    6.43987030387539   16.89821142065523
C         7.90586786171007    5.96693964868935   14.86506736511731
C         8.74452962935318    6.85613943952292   14.11166887812115
C         9.64699143844177    7.88590411233769   14.38782401951517
H         9.95441865577463    8.23610679110936   15.35237581779315
C        10.04140978870774    8.33878823314164   13.13125859876087
C         3.58484105361724    1.52574781834737   11.21238673622657
C         2.58955251220114    2.37045894286061   10.40747167817979
H         3.13300223852867    3.05058787944209    9.75711848197012
H         1.96590101332548    2.95960628866590   11.07698839876541
H         1.94632289264430    1.73314448981909    9.80300123337179
C         4.43655091791778    0.69411910133612   10.24587840020792
H         5.02492082571203    1.35766262760191    9.61745678411978
H         3.80199642566711    0.07539952182028    9.61375283090755
H         5.11188533916807    0.04314282685487   10.79861982809689
C         2.82500346235907    0.59509142476563   12.15823224953700
H         2.19595576298127    1.16726405702117   12.83656544508173
H         3.51694604810933   -0.00349019315560   12.74731668234865
H         2.18877032524923   -0.07839454350442   11.58666687803975
C        10.99387704219089    9.44484319336370   12.76837879019740
C        11.70365023741454    9.98094306678349   14.01271619659788
H        10.98821472074155   10.40965386494906   14.71115304759248
H        12.41340498034666   10.75677713651597   13.73114251145900
H        12.24680070000852    9.18438079370428   14.51655958308420
C        10.20593429137091   10.58134618247241   12.10304197456271
H         9.45848134972577   10.97758458992786   12.78836304621201
H         9.70109942413041   10.21344352409874   11.21339757473830
H        10.87487498771691   11.39083692918949   11.81648646808331
C        12.03313598155001    8.90162868233993   11.78117944649489
H        12.62219246531831    8.11575838671970   12.24948728274663
H        12.70464765533194    9.69531296086672   11.45844757700424
H        11.53379016070250    8.48282515657134   10.91207355589308
C         8.43977211412301    4.02258675281702   11.97374581036684
C         9.37874565510473    1.72730488457011   11.34848767387751
C         8.24044997932859    0.77615521625849   11.73085438716337
H         7.30765949858436    1.12249846811865   11.29125649589386
H         8.11764678478229    0.74637986871776   12.81150248590837
H         8.45472031601183   -0.22759953557737   11.37248438451422
C         9.56826247124100    1.76159355433640    9.82902011071193
H         8.64506141057938    2.07868282699147    9.34924861044549
H         9.83694624490256    0.77303501549785    9.46545525838770
H        10.35750297782877    2.46147355526283    9.56280680522118
C        10.68118590446814    1.34738032993181   12.05588563248290
H        11.47054586113647    2.05120261557443   11.80092173978129
H        10.98974267369844    0.34984523915722   11.75403845716055
H        10.54360378543565    1.35929734475215   13.13491628601431
C         7.64200132186872    5.74133575470649   10.40528510336921
C         8.86450999107707    6.67682783604784    8.38324836598689
C         8.20164115834982    6.54769558711625    7.01140273753315
H         8.08616204272866    5.50013820492451    6.74280579436786
H         8.81083835843022    7.03829948816444    6.25659612565210
H         7.21751434728717    7.01029097761664    7.02245895441904
C        10.22212994988835    5.96779749483024    8.40833338451531
H        10.10496602606810    4.91641944140923    8.15506711536991
H        10.65197272302490    6.04162120079981    9.40451087494132
H        10.89795260238311    6.42851950027849    7.69220143348518
C         9.02090099342742    8.14232796867638    8.80102474493386
H         8.07418483692497    8.66765383091345    8.69752180768376
H         9.76628504866074    8.63458599255337    8.18132888510310
H         9.32640535693765    8.17852278884489    9.84687341290854
C         6.21355198785619    6.87721765037508   12.16759292519712
C         5.48287331560397    9.32449934740239   12.32084526661567
C         3.96945879526941    9.54723651212555   12.31663770996860
H         3.53342061308496    9.16144662370964   11.39788197870000
H         3.74980422162912   10.60914538998256   12.39053533206765
H         3.50866525428761    9.03495526962808   13.15830984007228
C         6.11201961941412    9.81936303008338   13.62774635824140
H         5.65691979829742    9.32183275683662   14.48171125179866
H         5.96830016483036   10.89226204985131   13.72794533859813
H         7.17827927359978    9.60208386860088   13.63237881347865
C         6.14665479071286    9.99935084036642   11.11689721105613
H         5.71041721859544    9.63275963160587   10.19026170607265
H         7.21097976403746    9.77576078672903   11.11259823478497
H         6.00879573871897   11.07635354920268   11.17018264347356

