105
CSD_code = HAZRIM | q = 0 | S = 0 | Stoichiometry = C40H53FeN11 | MND = 6
Fe        6.23150377271500   -1.77857578655401   20.73666500383709
N         5.51563650640666   -0.92387414280404   17.86141024041357
N         6.28101370253896   -1.46941375640443   18.78133298184862
N         7.90247572651719   -2.56566427289826   20.35284449845706
N         6.74107968799194   -2.35662843772177   22.54684053470958
N         6.21345943199514   -2.30333472201178   23.75268263139466
N         4.44917005023490   -0.92604407765497   21.13399456124498
N         0.74886280235076    0.88936403016461   21.90682798095759
N         7.11450247935599   -0.01069325424236   21.10065458000775
N         8.97575416816446    3.63644571404735   22.03916365048590
N         5.30889092555143   -3.54404964817598   20.49363436956465
N         3.47073940813504   -7.30993782838098   20.20296469625435
C         6.12845379075059   -1.03268693122689   16.67195613440822
C         7.35133242720785   -1.68129679494314   16.83003460884417
C         7.41614762203213   -1.94716775965101   18.20087105418201
C         8.35248832607904   -2.57485060035363   19.08913690026098
C         9.58518489851997   -3.14599549584945   18.77210274812591
C        10.33709762106263   -3.70643649108066   19.79183494712888
C         9.86184304866725   -3.69279379570354   21.09453170713715
C         8.62299074095751   -3.10623027573139   21.34693552239761
C         7.94144697320239   -2.98018505073368   22.60228884938033
C         8.18591276328201   -3.34353166301640   23.93081834562305
C         7.06252937457395   -2.89210803814474   24.61485442883255
C         5.51127702373420   -0.50772843933394   15.40634201331018
C         4.17351622286828    0.16312065746892   15.72219867558194
C         6.45773827510648    0.51446940106713   14.76479212330454
C         5.28289241213178   -1.67262975874296   14.43478804883252
C         6.70888482836676   -2.97773101313496   26.07345216358681
C         6.48719500573242   -1.55783278235701   26.60966696457853
C         5.40948249080038   -3.78060145915240   26.21626107971941
C         7.82248680637072   -3.65861200852701   26.86923444957409
C         3.72361642707443   -0.37409850690824   20.16031337715358
C         2.50734786699539    0.23856443145882   20.36669250149107
C         1.95757553694161    0.30866005496489   21.65779401738681
C         2.73419128851660   -0.27499652936734   22.67278470371879
C         3.94025076730206   -0.86524276306291   22.36607104414546
C         0.03095801097714    1.55008352783830   20.84469469614888
C         0.27130558483866    1.01834547040308   23.26135916246251
C         7.89954732525445    0.62881582305407   20.23175988770014
C         8.53556250162620    1.82156324349508   20.48987541257366
C         8.38061326189771    2.44832587509379   21.73765434379506
C         7.55470907806148    1.76653271693947   22.64831249686579
C         6.96238903888979    0.57824113466189   22.29006375477185
C         9.87324707996965    4.25726602116024   21.09620578413511
C         8.88400674205869    4.17229575127554   23.37524703575374
C         5.42535246049178   -4.30753807126923   19.40565891965093
C         4.84730349599610   -5.54795240374924   19.26045811804734
C         4.07293802934794   -6.09139496250225   20.29908833353186
C         3.95316912972243   -5.27961504592690   21.44058996101956
C         4.57054876855768   -4.05163732450603   21.48450762146873
C         3.68836605768621   -8.13593494510580   19.04088300581203
C         2.79055223963449   -7.87188058398286   21.34410430149915
H         8.08002228633527   -1.92488387993416   16.08093473904769
H         9.93548513123901   -3.14596738039617   17.75173566963942
H        10.43091375335671   -4.12425975398858   21.90294111413974
H         9.04613379077994   -3.85253336042927   24.31844829158281
H         3.71554374457576    0.54532158401165   14.81093600700045
H         4.32323060142679    0.98509688978084   16.41712517658053
H         3.49948636864536   -0.55081434157346   16.18768388934789
H         6.02607720556994    0.91012746475875   13.84643075710320
H         6.63701896861562    1.34153796357662   15.44900635597727
H         7.41397380668082    0.05433283597268   14.52626747172770
H         4.83273976632961   -1.31555644220509   13.50950573019752
H         4.61932949522421   -2.40984407492477   14.88251448437231
H         6.22482566170519   -2.16096024833286   14.19489859640761
H         6.18751748585587   -1.58418476581752   27.65647840240974
H         7.40276442709527   -0.97555915969732   26.52378418595447
H         5.71140541923303   -1.06426020454705   26.02993446576791
H         5.10086130796374   -3.83102888856536   27.25960202483911
H         5.55019917027362   -4.79408637488013   25.84508459485715
H         4.62130423268940   -3.30903984859057   25.63480718198661
H         7.55350037621166   -3.70985323369356   27.92340121480656
H         8.75294305895139   -3.10222775048282   26.77822613263203
H         7.98775812299242   -4.67105707788995   26.50711548591659
H         4.15268627575787   -0.43142356044403   19.16720327734117
H         1.99639757065627    0.65955913701285   19.51752193100087
H         2.40792413544300   -0.27241956616182   23.69939423455873
H         4.54215184187142   -1.31697164665382   23.14630833068292
H        -0.90969667410869    1.93829459188037   21.22783626334934
H         0.60460963690477    2.38526140447216   20.42864279871506
H        -0.19531146651572    0.84838619498451   20.03776963478428
H        -0.70461250820089    1.49778327546658   23.25910558024074
H         0.16461353132289    0.03576941375002   23.72865810998085
H         0.95000541481948    1.62286031113490   23.87285924837414
H         8.02539934142933    0.16095601484842   19.26825883397769
H         9.15199464236880    2.25141654897836   19.71874997367715
H         7.37382170447711    2.15215230113498   23.63726746116818
H         6.34417403380697    0.05377026523958   23.00061035178313
H        10.21547331442321    5.20973436739017   21.49361260550769
H        10.75000386818586    3.63104655146629   20.89824943531714
H         9.36188365492549    4.44984503893830   20.14992636882427
H         9.43242777256781    5.10948877054764   23.42941260428941
H         9.30564720520716    3.48362573439828   24.11489316897761
H         7.84244206515345    4.37275216342598   23.64009433724875
H         6.01440020098044   -3.90169105093794   18.59844297469636
H         5.00937113692986   -6.08487960829358   18.34129916523419
H         3.38699029710660   -5.60017452031352   22.29854746839809
H         4.48877529657441   -3.44351907276722   22.37082844192701
H         2.39682427780826   -8.85192931424912   21.08631735840519
H         3.46560956561913   -7.98622392924757   22.19865549424085
H         1.95236134746566   -7.23771185087392   21.64491961708563
H         3.10239111804666   -9.04763047808019   19.12839446813453
H         4.74271629989902   -8.41261672403371   18.93221109009248
H         3.36980654615579   -7.61484882761455   18.13476220093504
H        11.29574436594061   -4.15543031970432   19.57175022561321

