39
CSD_code = HAZSEG | q = 0 | S = 0 | Stoichiometry = C14H12N2NiO10 | MND = 6
Ni        0.00002346037499   -0.00001781317612    0.00001555468655
N         1.45132271471233    1.20521351942670   -0.26117862407174
O         1.20650436044281   -1.26276609063055   -0.60784653344078
O         3.23068810413729   -1.60348288863447   -1.38835836529389
O         5.18963680075170   -0.20429254958358   -2.15517245898797
O         5.69257255704942    1.93122363524058   -2.23717194117961
O        -0.56186029358572    0.60827564647762   -2.30127521379796
C         2.53623593796738    0.65519952059896   -0.84682394065786
C         3.62144831478645    1.44975350880048   -1.23428989834898
C         3.53386820493902    2.82365985108735   -0.98383814624446
C         2.41974258684586    3.36293914905096   -0.37687358519436
C         1.38492365512682    2.50887054920539   -0.03129480262887
C         2.34402297607853   -0.85575300102927   -0.97970071008612
C         4.92908973231203    1.05067850902683   -1.92677937925550
H         4.36824014957195    3.43855788602077   -1.29018843211075
H         2.34439930086591    4.42000174968859   -0.17962971614497
H         0.47852662893436    2.87089588643304    0.43668461295795
H         4.46582598077332   -0.85719316316674   -1.87308099386973
H        -0.82472198166850   -0.15925326179591   -2.81701516778539
H        -1.30515760440850    1.21839144919827   -2.27331810916239
N        -1.45130385700320   -1.20522014609678    0.26118180172908
O        -1.20642656214985    1.26274336362103    0.60792048364275
O         0.56190436756999   -0.60829959568776    2.30135666691095
C        -2.53631455926558   -0.65515456741491    0.84658755605724
C        -1.38484773999975   -2.50889959653238    0.03147388324256
C        -2.34404949775417    0.85577572180029    0.97951417435269
H         0.82477748842373    0.15921019223305    2.81712033290802
H         1.30518552180486   -1.21843901141441    2.27340672161369
C        -3.62150159405096   -1.44970244071878    1.23414564536523
C        -2.41964942347402   -3.36296354110264    0.37712447422875
H        -0.47848945661172   -2.87092460567833   -0.43658283643421
O        -3.23070327587492    1.60349835674305    1.38811461818923
C        -3.53381870189597   -2.82365053465079    0.98398835101487
C        -4.92896823701602   -1.05077462926425    1.92720199348672
H        -2.34434868270457   -4.42002281183883    0.17981514312437
H        -4.36822258366212   -3.43853070627702    1.29028046840176
O        -5.18991599363474    0.20443686608280    2.15453985383678
O        -5.69241056508115   -1.93137064128877    2.23783673145729
H        -4.46622823362704    0.85738623524631    1.87210978748927

