107
CSD_code = HAZVIN | q = 0 | S = 0 | Stoichiometry = C46H54I2N4Zn | MND = 4
Zn        6.28282778407489    5.73564220059888    3.96274034728209
I         8.05895549678448    5.93051158557315    2.13358098829414
I         6.55839488824907    7.35012605904961    5.93072153224626
N         4.55800361133854    5.56145313102627    2.12257812453732
N         4.31700667244683    5.54917683968570    3.38578624632601
N         5.76209143555277    3.92936995564704    5.66338972026846
N         5.81425592003898    3.77796280924816    4.38744531341972
C         3.53405212649027    4.93369640353434    1.45753369235593
C         2.60947272060437    4.48209622770161    2.40199673831836
C         3.13084345610763    4.86489423987251    3.63192392880874
C         3.51124986587182    4.91332397561864    0.02415294396714
C         2.60875046028946    4.67726743402099    4.95474354975751
C         4.96273276678825    2.95361156854422    6.20544545391172
C         4.46945684735888    2.16266255028244    5.16541278393602
C         5.00611213054246    2.71110598024521    4.00685168595973
C         4.83305832388452    2.83606607923408    7.62844606867203
C         4.85492768178017    2.30693965913891    2.63893268099598
C         2.36108760476873    4.55568299964586   -0.68875664219354
C         2.34639663662253    4.61706500053401   -2.06367923778084
C         3.47073073308226    5.01498551335933   -2.79404730545533
C         4.61973616374142    5.34808111426273   -2.07718016304600
C         4.64260712513676    5.30892931339935   -0.69977379662990
C         3.38875530213557    5.09799124476066   -4.30683685593322
C         4.72350508164289    5.48280420200371   -4.95016604034320
C         2.95797417853941    3.73969139233757   -4.87911397823001
C         2.34801087294818    6.16727359706196   -4.67350204431914
C         1.57892599078218    3.75507769152866    5.19422631281833
C         1.06536947138138    3.59207242002675    6.45729884769869
C         1.54419850393663    4.32767465123559    7.54845355060294
C         2.58117069505164    5.22366491045747    7.31110264733201
C         3.10295923938180    5.39876397372984    6.04550572777573
C         0.87664709746377    4.17975187358040    8.90220221625782
C         1.61824658601917    4.94060490346287   10.00407187571210
C         0.80923813425596    2.70005246936041    9.30352424987675
C        -0.54729974757051    4.74704068037249    8.78754385841934
C         3.82711603664395    1.43007709450301    2.26066439167018
C         3.69841838209129    1.02475053230599    0.95499796746789
C         4.57468591629130    1.46677789492159   -0.04385826921686
C         5.57666777173367    2.35577811541178    0.33077140320738
C         5.71820951506294    2.76738147672238    1.64037238335488
C         4.45066758955318    0.91016021085187   -1.44911574063268
C         5.38577036768987    1.61070120145936   -2.43794413208914
C         4.82036808154313   -0.58094033692363   -1.39638096443364
C         3.01148203688052    1.06441858738249   -1.95887849884681
C         4.28511222657078    1.69498404399988    8.22563510555150
C         4.24011710192548    1.57940044405901    9.59641218232223
C         4.71428805801629    2.59262247736622   10.43568249146876
C         5.24018606726785    3.73502355313736    9.83274361198992
C         5.30930975109550    3.85560926902432    8.46160709331547
C         4.67131215284114    2.39940435869055   11.93996321083051
C         3.23640295885221    2.08061829002919   12.38444683424088
C         5.14126124900558    3.63761184572644   12.70788421903564
C         5.59655966588692    1.22591143228502   12.29767783531492
H         1.69923193641496    3.95081974632959    2.21819169988743
H         3.81534403639481    1.31967787489955    5.24354189143593
H         1.47227134093634    4.25216262694522   -0.15599000243556
H         1.43362349396176    4.35970017995295   -2.58053795881128
H         5.51499063676505    5.65713994230954   -2.59087201927044
H         5.53428445595379    5.58995531422044   -0.16242206964507
H         5.04717427048408    6.46876020931066   -4.62603449016209
H         4.60827552858670    5.50865224495892   -6.03161464805722
H         5.49759303778201    4.75654342421616   -4.71272894838674
H         3.68523326903677    2.97461262951542   -4.61907602902868
H         2.89469393899384    3.80031264749032   -5.96321656686676
H         1.98671789616887    3.43252058928031   -4.50179166039817
H         2.63461176047103    7.13010279459087   -4.25591868324860
H         1.36330833312765    5.90963600390069   -4.29274484059219
H         2.28137763629466    6.26592913948519   -5.75460197836713
H         1.19096445182465    3.16665678930448    4.37604202609996
H         0.26463746146036    2.88177842825395    6.59797745624520
H         2.99259162872457    5.81589985713746    8.11082886559937
H         3.86974922224138    6.13765491480297    5.89016229000036
H         1.61031300463435    6.01150579274154    9.81722076858924
H         2.64807495950194    4.59926152745372   10.08258747980778
H         1.12353805203651    4.76837357828353   10.95809536234571
H         0.20100170742372    2.12221986741599    8.61345845864651
H         0.36946514635629    2.60569094915211   10.29396928818198
H         1.80903291407290    2.27365012156009    9.32543557576737
H        -0.51398414383158    5.79508339445913    8.49759645112620
H        -1.05722704060851    4.66926329315021    9.74516400589120
H        -1.12784453798598    4.20606583721491    8.04453020335344
H         3.12999615615194    1.07517498585635    3.00516558681167
H         2.90260011977483    0.33885250516815    0.70663471585389
H         6.27875311185366    2.73296809253924   -0.39336224554564
H         6.53648744233910    3.41518179229974    1.90292433772468
H         5.18739525104389    2.67990438820710   -2.46505793586151
H         5.22730772438454    1.20444514421579   -3.43511147708170
H         6.42851428882657    1.44758120711006   -2.17737793114172
H         5.83707826347345   -0.70525257718662   -1.02974791839691
H         4.75588404634895   -1.01591451102189   -2.39122051763318
H         4.15118900637394   -1.12903218562836   -0.73793378774384
H         2.71970392827759    2.11147904793014   -1.94048981113138
H         2.30714831084394    0.49761324164379   -1.35664399963126
H         2.94150685942934    0.70205491959969   -2.98215675609332
H         3.91703238053337    0.88997834176319    7.60721650106822
H         3.83593004206332    0.67343668160634   10.02335708330409
H         5.61640821880592    4.54676976483278   10.43309035333579
H         5.73800068268057    4.73803031409413    8.01391395559103
H         3.20729149356913    1.94314235433698   13.46292542990958
H         2.86169381111727    1.17312760247942   11.91980926974131
H         2.57135925733633    2.90011776491205   12.12381230735463
H         4.52306182111537    4.50164167397957   12.47467262295022
H         6.17926076299699    3.87015777566577   12.48359462793385
H         5.06573558813950    3.44934695516733   13.77666935930744
H         5.60020144063329    1.06984662848595   13.37399151757276
H         6.61404679381911    1.43732274063372   11.97582026287101
H         5.27188201454947    0.30549049172339   11.81961637503614

