59
CSD_code = HAZXUC | q = 0 | S = 0 | Stoichiometry = C20H33Cl2N3Ti | MND = 8
Ti       -1.66487816924649    5.59686658413603    4.68363444263585
Cl       -2.74740795475151    6.89881723351309    3.26617840986882
Cl       -2.79949572112850    3.77941001802650    4.13870574595300
N        -0.19373795155611    5.27633000300458    3.79482636426725
N         1.72352258524546    6.00645055661140    2.59000761256036
N         1.70311526026379    3.91144494211261    3.32975519298359
C         0.95525842998553    5.07977034691163    3.27892266699783
C         2.91238476641603    5.40839170792768    2.24247463495634
C         2.89957968407660    4.13940216200438    2.68906809747313
C         1.22859372857655    7.29156471056842    2.09169486105186
C         2.34408680621092    8.03752710238657    1.35605740514744
C         0.75189493869611    8.14643256089930    3.26912475249133
C         0.07341809802246    7.01440240144966    1.12379756903590
C         1.17690979125632    2.59828707676046    3.71066125776951
C         2.28571241194361    1.54539567977379    3.64210265629447
C         0.63550309792374    2.65286670394766    5.14169744575819
C         0.06013698974679    2.23242613128803    2.72735237165763
C        -2.82297479041939    5.91265590358397    6.69541683046644
C        -2.25683813746944    7.15423068110084    6.33041956019634
C        -0.84960277222397    7.03455130320998    6.34477022566753
C        -0.53336694551648    5.71192128359847    6.72354964137608
C        -1.75021698830405    5.01941267082764    6.93159240516233
C        -4.29720160387300    5.66913890492616    6.94299747742590
C        -5.11754677144143    6.07019152032425    5.70910759054727
C        -4.72679755423666    6.52809433477899    8.14396940163895
C        -4.56891075972282    4.19499334386222    7.25988456150927
H         3.69136589534928    5.92012431984197    1.72040765982371
H         3.66646530109862    3.40023384419842    2.60714269648070
H         2.67477458821843    7.49101703402784    0.47630463690239
H         3.19346740345934    8.21745233744690    2.01123077308422
H         1.96074510927139    8.99911532147154    1.02567552107731
H         1.54372295760818    8.23812568253921    4.01094673842932
H        -0.12662089366702    7.68805351789535    3.72938080259875
H         0.48274972058550    9.13873312370816    2.91700723079013
H         0.42652127247955    6.44522213164329    0.26574607840930
H        -0.35453566256244    7.94946367641932    0.77415454811277
H        -0.70881374281382    6.44436371375899    1.62726597192971
H         3.11749975759165    1.81010756612467    4.29099758165458
H         2.64756863809464    1.41337571827609    2.62553846119691
H         1.88313823833619    0.59346297887995    3.97748076740639
H         1.40766106738310    3.00547541041198    5.82319883675476
H         0.32205138398614    1.65936911949166    5.45124861257645
H        -0.22584220342348    3.32310518592172    5.18959909248221
H         0.45564877385409    2.15828227984434    1.71593915263062
H        -0.71866447802119    2.99540704415032    2.74547281443022
H        -0.38477651351867    1.28035327276801    3.00167891871143
H        -2.79522009521145    8.07872954947774    6.16337211681151
H        -0.14436994074747    7.85000953027248    6.23815674940443
H         0.45888540328336    5.33745724472467    6.94554356439699
H        -1.82984886539434    4.01163360377984    7.31930620228446
H        -4.84514037790898    5.45144969845404    4.85204510962829
H        -4.95517713418437    7.11494846803155    5.44808066463560
H        -6.17966914492758    5.93053058562613    5.90447514374914
H        -4.13067253051931    6.27946433651600    9.02014654273082
H        -5.77498551996286    6.35198745151309    8.37678945304974
H        -4.59508686250953    7.58632385595800    7.93036593870108
H        -4.06546440466988    3.89596833821465    8.17741430634985
H        -4.23012079222587    3.55899136989279    6.44330389086168
H        -5.63739681679989    4.03848682116818    7.39481424102252

