67
CSD_code = HAZYEP | q = 0 | S = 0 | Stoichiometry = C22H39FNiO2P2 | MND = 4
C        -3.20290483341401    8.04413881165588    1.79770997757386
C        -3.02125866305614    9.26358631043961    1.14547184469570
C        -3.68575557404582    9.57040456326869   -0.03130098843104
H        -3.52013930435582   10.52456578160256   -0.50702067377320
C        -4.55616902546542    8.63922658881791   -0.57373086396057
H        -5.07881039671161    8.86907169361376   -1.48948580420385
C        -4.76454802049736    7.41692194307697    0.04391116077539
H        -5.44031471745755    6.68708808932104   -0.37422880254685
C        -4.08689741583961    7.13354322918691    1.21906515907443
C         0.28744423631255    9.76615978297639    2.81922912556694
C         0.53877411377885    8.48204651286756    2.01961810912084
H         1.59944478643072    8.35620840446036    1.80677174970046
H        -0.00188554660754    8.50538190798966    1.07255504584325
H         0.19912847720498    7.61746341542055    2.60147369700415
C         1.04949071326274    9.69105267612544    4.13695696265742
H         0.63192590045711    8.90390051413778    4.76233683588783
H         1.00151248871771   10.63471207603177    4.67507700118680
H         2.09833688495740    9.46384258580755    3.94998998688883
C         0.69714571558049   10.97932671953446    1.99243579421567
H         1.72131027761143   10.85152905856837    1.64302221478052
H         0.65200487199411   11.89513470850610    2.57434587465087
H         0.05090634178926   11.08775152758605    1.12424945545934
C        -2.21819832779029   10.98405065223586    4.30317059823451
C        -1.84414233619757   10.61466519349048    5.73588822497512
H        -0.80165404292882   10.83427857736832    5.94629349441332
H        -2.00745671479860    9.55074791253763    5.90228248017423
H        -2.45713469210306   11.17403459992360    6.44133147489656
C        -1.76026952292968   12.38962826765204    3.93744980180030
H        -1.89054698698832   12.56723203220514    2.87161369111089
H        -0.71569137437556   12.54305655302618    4.19714503714075
H        -2.35243338644635   13.12398817893123    4.48300813838465
C        -3.73695744168563   10.86604143039960    4.13897523012995
H        -4.25053248353932   11.48301964172543    4.87477875105005
H        -4.04869571401640    9.82803707570124    4.28216099339808
H        -4.04889971194226   11.18490467826135    3.14578589784437
C        -2.27550250416890    4.26139721698609    2.65167995626965
C        -3.11048573246522    3.02249743508311    2.35660095396859
H        -2.49991204421769    2.27987073115202    1.84348308611242
H        -3.95349478760114    3.27519890719291    1.71631147830114
H        -3.48399944382245    2.57246586362564    3.27316337471094
C        -1.22344376239829    4.00033171317193    3.72589026346041
H        -1.65236810793394    3.51093392682753    4.59523511059519
H        -0.77904551205864    4.94040649767530    4.04992090242170
H        -0.43416580225842    3.36113538020519    3.33247813848471
C        -1.57575917699911    4.74064602096655    1.37565413506694
H        -1.07785449258274    5.69645267448290    1.55917739602845
H        -2.28987633514759    4.87494811879375    0.56487201641833
H        -0.82548924203184    4.01883529270446    1.05641664557354
C        -4.57503275830692    5.39356787210836    4.49437844287985
C        -3.88270891826320    4.82990727092293    5.72959149855754
H        -4.54623652575724    4.89187102417808    6.59131280163628
H        -2.98309945868135    5.40394535476643    5.94471456651307
H        -3.61245140748035    3.78610745396983    5.58879868135086
C        -5.10004803163642    6.79927373419859    4.81026068756556
H        -5.81238559206313    6.77384344835844    5.63372262209412
H        -5.59575851319879    7.23055339450265    3.93960648862247
H        -4.26278089164992    7.44527707490624    5.09872863371996
C        -5.72263528217566    4.50493461072766    4.02917758018394
H        -5.40869255669455    3.47173913470960    3.91398507106457
H        -6.11788640567763    4.85541543924159    3.07836179046008
H        -6.52555718193534    4.53377869925759    4.76526719678442
F        -1.41880777936484    7.25959765826349    4.92491512838544
Ni       -2.29415621813211    7.64459920521655    3.39086632396561
O        -2.14507612116735   10.17508834248704    1.71293486510742
O        -4.27373563685413    5.91891032399305    1.85959077401005
P        -1.55610156960807    9.65931585065607    3.14970577869399
P        -3.30078078257078    5.74801263419978    3.16396093527049

