97
CSD_code = HAZYOW | q = 0 | S = 0 | Stoichiometry = C34H54MoN4S4 | MND = 6
Mo        6.38928360021284    1.35380092527524    4.46820041614185
S         7.52907106420137    0.63225206637377    6.58483907639443
S         5.13665304323086   -0.72610491577670    5.61027067559500
N         6.39014828134725   -1.41458810889653    7.83618253949711
N         5.17775606961031    2.39972879616281    5.17991462492617
C         6.34312856148136   -0.59692267432366    6.78590350467109
C         5.39141486699957   -2.44910252147813    8.01631296501945
C         5.78500766228584   -3.73290553707015    7.29170457595115
C         7.43828766656799   -1.30247109217963    8.82999820426869
C         7.07236255259848   -0.29592628428239    9.91684379040646
C         4.40519527251937    3.39206891113073    5.60505949268986
C         3.01815445767815    3.39343821819119    5.31425185809194
C         2.24362024489198    4.45752713610291    5.73612730122499
C         2.79463123184589    5.49726158641021    6.46463784695105
C         4.14727392905574    5.49188679667203    6.76475608069160
C         4.97153809649544    4.47128402040452    6.33409835676377
C         2.45358624530354    2.26253616147458    4.49052666333020
C         1.04497582415982    1.85319045927913    4.91708012695083
C         2.47708378162111    2.65486327443859    3.00983845824624
C         6.44249253141303    4.42531745244695    6.66787431156939
C         6.62201272903134    3.76167990096175    8.03819036233373
C         7.11537140093577    5.79573861215579    6.63574424770020
H         4.43931683344869   -2.08395517908517    7.62218386509241
H         5.28310645663313   -2.62999291716703    9.08772478969718
H         5.02565924664076   -4.49372017415700    7.44752630141573
H         5.87198634756983   -3.54110159063772    6.22531254614993
H         6.73859151662267   -4.10670411680960    7.65801512866126
H         8.35756969049176   -0.98469209600152    8.33145501229424
H         7.59613129687518   -2.29269291488815    9.26280119812132
H         7.86367985790381   -0.25121691275215   10.65933062534876
H         6.94942352719299    0.69188301817119    9.48047362433450
H         6.14486482631653   -0.57986020766387   10.40917547684167
H         1.18964254510636    4.47682588570671    5.50380018855695
H         2.17081658064609    6.31358508092631    6.79816156367126
H         4.56268610815386    6.30853794034719    7.33549886035130
H         3.11636392377838    1.39438895862015    4.61968801835393
H         1.00164429109989    1.69517887762376    5.99249570118296
H         0.31524817801667    2.61259177392074    4.64614850048163
H         0.76541717719259    0.92634695419510    4.42031737989036
H         3.49780205278440    2.87334282318840    2.69743914719156
H         2.09578022620092    1.84146115524952    2.39590620718973
H         1.86427185633475    3.53919042266834    2.84388589992089
H         6.93021747423158    3.79047861625169    5.91204701064780
H         6.17345500719046    2.76806156489602    8.02833820359618
H         7.67836879101260    3.66306538598092    8.28044400607514
H         6.13613994002642    4.35263653887789    8.81279115182109
H         8.19347115165645    5.67534716926809    6.71591760806138
H         6.89843665883931    6.30191441401404    5.69844157998649
H         6.78212785854815    6.42183310750519    7.46019548268664
S         5.24922513673464    0.63211182523012    2.35141222794813
S         7.64169205106279   -0.72620036806792    3.32588377336948
N         7.60057425152505    2.39975152073830    3.75610485926365
C         6.43540337897369   -0.59679985325574    2.15008721859084
C         8.37315428482829    3.39209649913508    3.33100806981904
N         6.38831212186690   -1.41451833071908    1.09985621269754
C         9.76019640790183    3.39346361658607    3.62182521677410
C         7.80681364901937    4.47130955575003    2.60197379440142
C         7.38697838386855   -2.44910437385307    0.91976493849592
C         5.34010670349349   -1.30245055091988    0.10610646955925
C        10.53473375826422    4.45754989303231    3.19994622521381
C        10.32475379919446    2.26255386734746    4.44555020425060
C         8.63108100787602    5.49190281114372    2.17130450786004
C         6.33585709183609    4.42532647110433    2.26820955342625
C         6.99334986023363   -3.73288447404275    1.64439854326093
H         8.33909831987743   -2.08398332315518    1.31386330354681
H         7.49525763781656   -2.63002509022839   -0.15164260366764
C         5.70600288889368   -0.29593782401334   -0.98077443953565
H         4.42085993835241   -0.98462725395240    0.60468911995233
H         5.18222557887142   -2.29268853590257   -0.32665254019319
C         9.98372307785713    5.49728037487673    2.47142673131518
H        11.58871444244495    4.47684380761755    3.43226141689139
C        11.73336371290413    1.85320202182940    4.01900136150052
C        10.30124920944018    2.65486633185854    5.92624315389983
H         9.66197101201250    1.39441129381741    4.31637531112767
H         8.21566918421299    6.30853515601861    1.60053561555874
C         6.15634316264781    3.76169767064734    0.89788872336558
C         5.66295907525285    5.79573737363960    2.30035831169795
H         5.84814410899695    3.79047230858129    3.02403361316035
H         7.75266381312209   -4.49373579593491    1.48858553578999
H         6.90638088593303   -3.54106490336102    2.71078767046836
H         6.03975128500484   -4.10665313730945    1.27809651687306
H         4.91465814947050   -0.25125839659880   -1.72323167076636
H         5.82894707659875    0.69188367153482   -0.54443295285740
H         6.63348710995852   -0.57987789675794   -1.47312743480990
H        10.60753941616771    6.31359213312076    2.13787856014591
H        11.77669214964321    1.69519349560430    2.94358487007093
H        12.46309585191405    2.61259769019586    4.28993662032239
H        12.01291406456831    0.92635350920418    4.51575925930500
H         9.28052870341617    2.87334822755422    6.23863336693928
H        10.68253744654892    1.84145281264237    6.54016973428279
H        10.91406557361538    3.53918711223779    6.09221546175952
H         6.60489949909048    2.76807906787625    0.90774450893816
H         5.09998987137317    3.66308228650700    0.65562740621412
H         6.64222534500492    4.35265454824633    0.12329335454877
H         4.58486239750219    5.67533079360219    2.22016723658047
H         5.87987374316219    6.30189663898218    3.23767781276580
H         5.99620584766514    6.42185896005786    1.47592469284546

