67
CSD_code = HAZYIT | q = 0 | S = 0 | Stoichiometry = C22H39IO2P2Pd | MND = 4
C         3.66781770100464    1.97941879097341    4.66806310941424
C         4.51339558483139    2.90692322776276    5.25652492029892
C         5.17218734780012    2.63157117735614    6.44523777282739
H         5.82474752535061    3.37167825397974    6.88141953408845
C         4.97433100551885    1.40119662885539    7.05018673110755
H         5.48209245243926    1.17639334397804    7.97521755812888
C         4.13387954606134    0.45532095315948    6.48642814092690
H         3.97605984902403   -0.50378116347405    6.95444362407781
C         3.48788078244185    0.75736364874466    5.29722932295795
C         5.25181576840190    4.67810207927631    2.06207405056052
C         4.77175534788103    5.31085292127547    0.76028973541087
H         4.54370846379372    6.36509338631075    0.89236667439276
H         3.88510703455675    4.80935932473430    0.37816881767647
H         5.55445968452112    5.23008416839050    0.00664682483797
C         6.36046014716570    5.51533330027721    2.69099524867109
H         7.22351481272056    5.53511058771024    2.02643149163201
H         6.67279397817170    5.10073827732585    3.64698612563285
H         6.03273008130492    6.54029969400395    2.84903655153110
C         5.74597648481269    3.25189255967223    1.77893314234531
H         6.59060534369448    3.26408935919462    1.09140621939055
H         4.94031009430333    2.66266558012543    1.31472798170086
H         6.06446171589557    2.75731465927320    2.70136062815668
C         2.78390105896024    5.81217432675337    3.75378575762412
C         1.67259711397360    5.12170160187522    4.55784726323802
H         0.95189361681083    5.85069991752271    4.92589402970918
H         2.08659905362550    4.58809228561427    5.41840361426092
H         1.13461678804601    4.40554951919172    3.91808302188444
C         2.17104511972952    6.51599126413623    2.54767772040301
H         1.77053014008328    5.80111449381652    1.83177662837096
H         2.90180882080345    7.14126877441280    2.04160975802102
H         1.35362401239834    7.15698417061911    2.87621411567980
C         3.54048560886672    6.80394464606458    4.63106381492001
H         2.84626773037905    7.54737894039149    5.02136845280554
H         4.30764890309021    7.32370814049711    4.06151933413648
H         4.01487408872452    6.30268897501468    5.47223175637124
C         2.66937963213718   -1.03176303468976    2.16904233823144
C         4.12372785397398   -0.56236508304138    2.02091824737976
H         4.64399495461717   -0.58412602480684    2.98074465572061
H         4.14779729475396    0.46690298437132    1.62807926288311
H         4.66658065964859   -1.20015262343110    1.32493947000701
C         2.61074933221178   -2.41934524505534    2.79766959369628
H         1.59186451438481   -2.80046455198969    2.80229970700430
H         2.98183778118342   -2.40195516970500    3.82046852175603
H         3.22565129620640   -3.10916770372783    2.22060381729687
C         2.00567899174483   -1.02989135605517    0.79622546433487
H         2.58965988053954   -1.64160625348679    0.10922283174352
H         1.95126708683582   -0.02387809655280    0.38598266397505
H         1.00052803933917   -1.43927632487241    0.83639459164684
C         0.15071179458132    0.14113954977598    3.74814290147085
C        -0.11649696298047   -1.00209781848887    4.72186458253157
H        -1.15931949042806   -0.97343470443533    5.03555014938997
H         0.50976816757519   -0.91892315218391    5.60724064720490
H         0.07187121172432   -1.96662251880685    4.25707050515320
C        -0.73480805407072    0.01570138555160    2.51308192088652
H        -0.69816589963276   -0.99150897427483    2.10529143265093
H        -0.43615762281110    0.71833199050258    1.73764983681112
H        -1.76881335657163    0.22976751898387    2.78118621102222
C        -0.10570647238734    1.49310202362228    4.42959909274450
H        -1.12707435505741    1.55045951203641    4.80352185707907
H         0.03697110382581    2.30993762649030    3.70875795376342
H         0.57503278503286    1.63795119293678    5.27531158010544
I         1.50637638851180    2.94559870578145    0.75565362615419
O         4.68944941244555    4.12834423278490    4.62909575572673
O         2.63931823360971   -0.16617709053823    4.71163659488799
P         3.84098749162609    4.34110095446322    3.25524557224760
P         1.96805872356725    0.29335152575829    3.30038575553089
Pd        2.73999677667991    2.39004870826977    2.97567338577180

