77
CSD_code = HAZYAJ | q = 0 | S = 0 | Stoichiometry = C24H46N6Ti | MND = 4
Ti        9.65789020151766    4.66260656972973    2.66845495538148
N         9.38407480914667    4.96178721645600    0.89133160314983
N         8.08721266027286    6.09090056662975   -0.77582107793519
N         9.83832794970991    4.89067627284215   -1.44567311442287
N         8.22240921522676    4.09898989054903    3.63974376178751
N         6.42001382477271    2.51999355401847    3.66618040535399
N         6.24283094556385    4.33977378235722    4.93986494024139
C         9.13149261552247    5.28093628434288   -0.29883632695827
C         8.18535417134325    6.17959218983165   -2.14908110649066
C         9.24128323087765    5.45382072496624   -2.55300525912907
C         7.11951487379708    6.76479503436719    0.07864131541346
C         7.87031732643416    7.71512718419472    1.02021797924414
C         6.35193217155837    5.71085332119586    0.88768065043733
C         6.12428790703570    7.56995115818640   -0.76209080193529
C        11.03264289358350    4.05757873020191   -1.41546194275043
C        12.10108735142318    4.75572471157886   -0.56428533237026
C        10.66749181776823    2.70027000251447   -0.80150633385297
C        11.57722438629862    3.84219531920981   -2.82970464631593
C         7.09551075077564    3.69829637586237    4.02924588961913
C         5.21949659405602    2.47211725977340    4.34503967560983
C         5.11071050964343    3.57185767866956    5.10899632490276
C         6.99894377177472    1.46611725102787    2.84254929002739
C         6.01660849985802    0.30105187666748    2.68870861413831
C         8.27957199355298    0.96198121072831    3.51972410735078
C         7.32513648593114    2.02807438192039    1.45223802821416
C         6.57193253072951    5.58880968419982    5.61339202055663
C         5.47006102158486    5.97616820254988    6.60276084944931
C         7.89293560936411    5.41265637565654    6.37305926787909
C         6.71593885961851    6.69033528356348    4.55605701702858
C        10.52706870378395    6.38711075650729    3.52237594045564
C        11.21013919189880    3.26725137292493    2.98379894637753
H         7.50237153417827    6.74341322341232   -2.74796544566508
H         9.59868610741390    5.30232460689086   -3.54923880872171
H         8.39552754626261    8.47446960495869    0.44355164199678
H         8.59940870450134    7.14348028078268    1.60321370779742
H         7.17387767192296    8.20592337406671    1.69531968294138
H         5.87530912777745    5.00133431796988    0.21374467110360
H         5.58397371052499    6.18779493129041    1.49118742343475
H         7.04427510736910    5.17400931210881    1.54290359179927
H         6.63012362593811    8.34202344673211   -1.33692737816302
H         5.41331463227511    8.05503347498851   -0.09797664946779
H         5.57055240100874    6.92359563349042   -1.43914426125776
H        12.36852496584640    5.71275076764571   -1.00866580846010
H        12.99261735517833    4.13746000209694   -0.49823657801397
H        11.70711543174794    4.92823495869344    0.44046866200777
H         9.90137454763440    2.21215453376777   -1.40119884616994
H        10.28454340720288    2.85599981724589    0.20919856096743
H        11.54401136058730    2.05882011335896   -0.75955452025871
H        10.84705548300793    3.33813669990644   -3.45879052320735
H        12.46525702003304    3.21759315573569   -2.77387127473965
H        11.85637125842887    4.78698420808758   -3.29052711101973
H         4.51855183361341    1.67234630550665    4.23511223119668
H         4.30470011793918    3.85466672818434    5.75219245674419
H         5.78719423940252   -0.15045546345499    3.65100463829802
H         6.46941959197034   -0.46023412726646    2.05851959720823
H         5.09313548524980    0.62806527120358    2.21644077299679
H         8.04799289666100    0.54460555794565    4.49803310231922
H         8.97090335173626    1.79800492892093    3.64378005597135
H         8.75102283936989    0.19324953217967    2.91269294779267
H         6.41969925187177    2.40730935963075    0.98217060584345
H         7.74205933515672    1.24358764967696    0.82479607837144
H         8.05325331526105    2.84416596449926    1.53972648936628
H         4.52188628451325    6.13305525544130    6.09343915113536
H         5.74817545825757    6.90542202536886    7.09371974291688
H         5.34401265419238    5.21306864846092    7.36734954290145
H         7.79252105382944    4.63285004172058    7.12551209364841
H         8.17074279531283    6.34146178595782    6.86442137241219
H         8.67914427241048    5.12869341745251    5.66997135068357
H         5.77295354301895    6.82844876011119    4.03053018947188
H         7.48791755878400    6.39776885154768    3.84032239817119
H         6.99633704815123    7.62941115805213    5.02657053638438
H        11.11196596681170    6.09069411592624    4.40823331708020
H         9.85484242943552    7.19464733748361    3.84370977563765
H        11.23775761298315    6.82990087830845    2.80424057259450
H        11.26382916824038    3.02772734443257    4.05896933092391
H        12.17798853356563    3.71501535878196    2.71073044112335
H        11.13705948896177    2.31238662744834    2.44522483148701

