66
CSD_code = HAZYOY | q = 1 | S = 0 | Stoichiometry = C28H31ClIrN4O(1+) | MND = 8
Ir        3.70222302984124    3.72917313731125    3.19534241136693
Cl        5.81877433918810    3.83401186965626    4.20894092245633
O        -3.19891707369864   -2.18076006459665    6.14027377021926
N         3.74399325784016    1.68784707675407    3.55691542758884
C         0.22801112773880    0.18833691695599    6.05421306398235
C         2.70924341883090    1.04276779551077    4.11452137026184
C        -1.22454559828816   -1.38548192692546    7.17562834052153
N        -2.99153425073459   -2.54608671977523    8.35088997843987
C        -0.98761887149359   -0.47082313948574    6.15710362653314
H        -1.77473960297463   -0.29531394723923    5.43860415987293
C        -2.55877210616020   -2.07060741640631    7.16382911717202
C         0.41200963795748    1.16776699303463    4.91239326966311
H         0.18743912733009    0.66093211752919    3.96841980711098
H        -0.31466800183154    1.98027329220616    5.01339648490129
C         1.22299332617000   -0.08137657584722    6.98583486408835
H         2.18211264653384    0.41245633564023    6.92389491063546
C         3.60444524295685   -1.06377731318484    3.38106130619948
H         3.53564916057958   -2.13768222109159    3.30993680101986
C         2.60922265748032   -0.35134660122488    4.01763171428458
H         1.78308625162022   -0.87550984404395    4.46579357506437
C         4.69760005974510   -0.38372296900292    2.85921142492991
H         5.50794452250029   -0.90459621834592    2.37835454732613
C        -0.21802907867759   -1.65563318644081    8.09681450995081
H        -0.36016827871900   -2.39118398298050    8.87345206928502
C         0.99752781864599   -1.00252825584337    7.99594077782883
H         1.78259101586893   -1.21437975318814    8.70524700496165
N         1.73188748148182    1.77090214955799    4.78363347897847
N         2.92840021617665    3.78643915045584    5.09526744608632
C         1.99045566000258    2.92333707771754    5.51667937234737
C         1.26229425068959    3.18730871858819    6.68472904678093
H         0.51931794256690    2.49115641508301    7.03370838373952
C         3.20587774049789    4.86996105967816    5.82931063733529
H         4.00959999211776    5.49318251921251    5.46397884963333
C         2.53774812274588    5.18054630258126    6.99273397401728
H         2.79749979766388    6.06506483540125    7.54899772228126
C         1.53294835134932    4.32210254959810    7.42022276501337
H         0.97999868984201    4.52356678919552    8.32388848187492
C         2.19255223312435    3.93796936486778    1.55428335715628
C         3.56771338791531    5.67967280147328    2.20404291051128
C         2.22790946592490    5.17575602292708    2.25897318303598
C         1.06149910413016    5.86800993253909    2.87869789469246
H         0.61624523620123    6.54135386293675    2.14504483325466
H         1.36168271781622    6.46248364704041    3.73878710714911
H         0.29602767479988    5.16199337556161    3.19233952937358
C         0.97336461323274    3.13231924145091    1.25059076139748
H         0.22279315897936    3.23892850401718    2.03024885896632
H         1.21433598092811    2.07719974748243    1.13889548056226
H         0.53379294025117    3.47445719206214    0.31272001531029
C         4.03537340140655    7.02378690835905    2.65635614392685
H         3.40648419894587    7.42014094778410    3.44940146854542
H         4.00568789127912    7.72148889227556    1.81839761922517
H         5.06195807804281    6.97237872020054    3.01190001501150
C         5.71774985735747    5.09404798734199    0.87527746655992
H         6.09944978559649    4.29853864558802    0.24242167026320
H         6.39553827890790    5.22304065764237    1.71773634240039
H         5.71326453510598    6.02271458151415    0.30479897574664
C         4.33684493399050    4.80046908963004    1.34990989912454
C         3.49877093234499    3.71844141355312    0.97195036973928
C         3.82358872160907    2.64573695874945   -0.01535735956109
H         4.89049931522041    2.44006632102971   -0.04096961332638
H         3.51677392985479    2.96885424241054   -1.01112851141294
H         3.29810972982081    1.72064066906693    0.21240658622476
C         4.72120213608941    0.98881356796490    2.97094570099980
H         5.55292454962366    1.56759406547126    2.59503930960516
H        -3.89011988208664   -2.99961441123801    8.38003337170679
H        -2.50731892978645   -2.38600591578413    9.21506120001273

