71
CSD_code = HBUPRH | q = 0 | S = 0 | Stoichiometry = C21H46ClP2Rh | MND = 5
Rh        2.25927621747257    0.44218736008276    3.99935055211086
Cl        2.79451773540336    2.44620877505597    2.83307320857871
P         4.09376363549504   -0.71043207675613    3.30153711771454
P         0.36286788663031    1.25110335633075    4.96350745028777
C         4.08038588943582   -2.21661256519665    4.38553047087482
C         2.64759914210058   -2.45370700369989    4.85614881663062
C         2.01118593521895   -1.13832244036599    5.30968204447933
C         0.57101441974372   -1.36561397975040    5.77364022449128
C        -0.05731646795299   -0.04801222797993    6.22044784579628
C         4.13803617729388   -1.39858660126623    1.54028615934328
C         5.74300800159218    0.10568350907105    3.75805685682831
C        -1.20440884522536    1.42048659609976    3.91861226467364
C         0.63606209979065    2.78663260412046    6.04138848126018
C         5.45351370290380   -2.07196602158441    1.15897742970514
C         3.00772532563115   -2.42604350043059    1.43561076389394
C         3.82434178359627   -0.24720749642509    0.58494407206721
C         6.92905968653024   -0.83912330598544    3.94861163904564
C         5.42604017242346    0.79772318019304    5.08954479952828
C         6.09248102348580    1.18592809576107    2.73555011188397
C        -2.38349472664935    2.05762249038735    4.64871209057351
C        -0.84410398657295    2.22550281011029    2.67003262856567
C        -1.59895024690285    0.00829247276961    3.47789386989701
C        -0.34850561691522    2.98217637856635    7.19382255278125
C         2.04313670990206    2.56087556958265    6.60849015858388
C         0.67375946201229    4.03865136699654    5.16641942401063
H         1.43566943877252   -0.30467481950042    3.03040613038045
H         4.49888002427596   -3.08928824571340    3.88093506150367
H         4.69895313090264   -2.00263789143988    5.25995512754087
H         2.04882154471837   -2.88720655133339    4.05451863460196
H         2.65088795531520   -3.17283097461894    5.68543309087116
H         2.59054013098400   -0.76825293854310    6.18170602445389
H        -0.00537829061386   -1.80715432997481    4.96003989202426
H         0.55509900812463   -2.07835764627142    6.60825109806599
H        -1.13409818223336   -0.13590444682031    6.37574853121306
H         0.39799798403522    0.24648195541416    7.16852688091910
H         5.33288529823890   -2.57674829697775    0.20051773662332
H         6.25519467459393   -1.34697739798008    1.04939292699466
H         5.74651613652478   -2.81844370045029    1.89517033660140
H         2.86386266623344   -2.70758061058838    0.39320795026185
H         2.07473213297770   -1.99839776361311    1.80187000561623
H         3.23001625689069   -3.32921158436410    1.99879450945581
H         3.65617964955323   -0.62823755625993   -0.42165887976549
H         4.63312437913029    0.47553916842630    0.54381924227665
H         2.92532843103128    0.27427872070167    0.91337335126015
H         7.23582929414276   -1.29886314412243    3.01501395602442
H         7.77434058239662   -0.26473685512786    4.32856265090251
H         6.71617974870832   -1.62719406289521    4.66680091608822
H         4.58726158375911    1.48674476762778    4.95053731692821
H         6.28108149582638    1.37952398378273    5.43275188578030
H         5.17198959076746    0.08031112336586    5.87045439291889
H         6.45272506203451    0.75480997196163    1.80472048583506
H         5.22199219453921    1.80718267598764    2.52818961888090
H         6.88039680694469    1.82718615611496    3.13083180328862
H        -3.27842651974476    1.96446095650145    4.03357107993311
H        -2.21650228567598    3.11625693415411    4.82693013059550
H        -2.57792199158902    1.56288510201045    5.59869864199844
H        -1.66086929291322    2.18972669092755    1.95009573369913
H         0.04837278951560    1.80890428581551    2.20323929643601
H        -0.64326322119110    3.26616461798949    2.90431603971993
H        -2.37734164616489    0.06553961479361    2.71805963006627
H        -0.74075687321673   -0.50446345937745    3.04418318401580
H        -1.98303207602875   -0.58084788703904    4.30717221720328
H        -1.34558341568247    3.22164493863780    6.83949963256591
H        -0.00574306781475    3.81593636578938    7.80706883775435
H        -0.41215083881020    2.10589867278743    7.83425508021771
H         2.75037385796848    2.42465776069262    5.78422946170780
H         2.08362805395032    1.68740299675342    7.25985759497462
H         2.36759599688302    3.42619175609677    7.18585038647037
H         1.30209644939693    3.87170620064042    4.29232878079859
H        -0.32187645206686    4.32838860433495    4.83950363480959
H         1.09269668818206    4.87153879598344    5.73129892587198

