51
CSD_code = HEBBAS | q = 0 | S = 0 | Stoichiometry = C20H23CrNO6 | MND = 6
Cr        7.05519563497164    1.64949785470620    4.83655970448641
N        11.16447165328356    4.63887922189131    6.90089032092455
C         8.39412232168850    0.79642915755803    3.84672308664147
O         9.09802578214406    0.18163908253118    3.17466968093635
O         7.30286907634387   -0.41386706867048    7.02577984366742
C         7.25333556711164    0.39901473173470    6.21237928600345
C         5.58373386335624    2.35745610899008    5.74418221072384
O         4.59631278352067    2.67246764532634    6.24853006993246
C         6.77840225267336    2.82785029028153    3.40787786188629
O         6.55224489029654    3.47866884945836    2.48686712631604
C         5.86132011713870    0.48490973081253    4.02640471220073
O         5.11955426805260   -0.23961323509695    3.52308031703185
C         8.32858497770954    2.89358151409499    5.72927845184279
O         9.35189331547332    5.20375027465789    8.12434348707694
C         9.08412860390627    3.64507823426389    6.34512275346029
C         9.85329026594805    4.48786144327926    7.12032077685037
C        11.83489386503064    3.92429519607781    5.84404073268271
H        12.63658303833980    3.31013410374634    6.25991336044528
H        12.26940949692591    4.62976635743556    5.13230783595468
H        11.12286003776540    3.28428542206641    5.32625032001457
C        11.99144616747080    5.51181143900028    7.69510924602672
H        11.38505371300474    6.02603870992259    8.43491406039088
H        12.47573310024885    6.24999690513102    7.05212671629431
H        12.76620811722527    4.93274221511206    8.20337778538970
C         7.96045575553258    5.09286137195734    8.42695361958556
H         7.44352549884067    4.76638933191090    7.51896836665591
C         7.44474570715121    6.44613169453427    8.95138969065551
H         8.26756793563507    7.15643325944564    9.03142935527696
H         6.69546477869454    6.87322245597152    8.28744738861014
C         6.86521672305086    6.09158251507896   10.32592076024647
H         6.15712576887418    6.82776909918365   10.70203554686137
C         8.05533667084438    5.83980376992288   11.25827838105745
H         7.73225963187813    5.76246881741630   12.29537008270713
H         8.78299525759286    6.64905623055551   11.20059608229017
C         8.62464396898543    4.50783130818664   10.73365583871329
H         9.64263785488465    4.61732718326577   10.36198711796088
H         8.64075090869227    3.73666119936131   11.50240222035144
C         7.66340455193489    4.11811924031000    9.59370156194697
C         6.30500796147280    4.67243141662554   10.09946866795224
C         7.71782198191718    2.65299557702570    9.20980731943695
H         7.05017780873926    2.44611055671269    8.37515579681982
H         7.42765318841964    2.03278224404424   10.05428558022805
H         8.72547034799908    2.37066036066534    8.91033914905895
C         5.16169909363524    4.60878576532580    9.08700186696799
H         4.28460158368544    5.09925504598124    9.50439415783674
H         4.90172965849814    3.57305822069785    8.88416116598475
H         5.39140595356268    5.08410037712779    8.14063831553723
C         5.79066388481926    4.00145244812319   11.37359807844819
H         6.55518040080275    3.87754109830606   12.13139726949969
H         5.38874451673558    3.01959865100202   11.13533093194132
H         4.98653969749822    4.59939657695103   11.79773594019572

