38
CSD_code = HEBGON | q = 0 | S = 0 | Stoichiometry = C16H17Cl2IrS2 | MND = 7
Ir        5.70684583249145   10.12555862447431   18.22333952775220
Cl        2.21882443484771    8.33391331321878   21.88839606989394
Cl        3.03179952300139    5.92487944820509   16.21816018202444
S         4.34147389072494    9.60638455175557   19.95909341853005
S         4.75106940819719    8.39331139831234   17.10844013787217
C         3.39235390884709    8.23824867398124   19.46058234020812
C         3.57611552643399    7.69439403436084   18.18093266299243
C         2.80766455818789    6.59323862810932   17.79050148129011
C         1.87850103746710    6.04051116232155   18.64721604246082
H         1.29591441033847    5.19126902236725   18.32959513904076
C         1.69674455040090    6.57935234225232   19.91559060444792
H         0.97229183016912    6.15093980540357   20.58874601592170
C         2.44561606657851    7.66645159277109   20.31609642124785
C         7.48455275372625   11.22406534165727   18.98123777681449
C         6.48675700225075   12.17221724009899   18.64071126357477
C         6.20835530400932   12.03478362704759   17.23026875098484
C         7.07194276323888   11.02250370215131   16.69981250949985
C         7.84155386050231   10.49961550263380   17.77860578079454
C         8.18413606905473   11.11675843969353   20.29608362941736
H         8.54854451338230   10.10678196521322   20.46542149419767
H         9.03905239195668   11.79481138694384   20.31342529086568
H         7.51886499723847   11.38452933920696   21.11287979778196
C         5.94595311653847   13.23701321845971   19.53829254998875
H         4.95687402026729   13.55443877135318   19.21913343579325
H         5.87626304257531   12.88110009646704   20.56304704320617
H         6.60665742888476   14.10527014048093   19.52028951044850
C         5.33622825627160   12.94356323094703   16.42972277819347
H         4.93941732158020   12.43550047360650   15.55430989534267
H         4.50308734226922   13.31171541833955   17.02319468497652
H         5.91880498235248   13.80225406299839   16.09125227951616
C         7.24787077709609   10.67768864573735   15.25621768320801
H         6.36090929129793   10.93249282472467   14.68321618763139
H         8.09474699482684   11.22865413784338   14.84439236638869
H         7.43814338107240    9.61446806426947   15.13148626606131
C         8.97194201765911    9.53280184701756   17.65649113453527
H         9.08430159778657    8.94171333084337   18.56201868003824
H         8.81815489958390    8.85837677771882   16.81825929589671
H         9.90217089689729   10.07882981701529   17.49043987116535

