80
CSD_code = HEBPOT | q = 0 | S = 0 | Stoichiometry = C26H44FeN2O3P2S2 | MND = 6
Fe        8.48518791330565   -5.62891032568839    3.08736969880523
S         8.05469483299412   -4.34418559811806    4.89541609767815
S         8.72635539705931   -6.99013466644325    1.29196471189218
P        10.20446979080193   -6.45471387625916    4.05920673456906
P         9.66252082114864   -4.05077803826366    2.18682784540600
N         6.77545768739509   -4.93295011110332    2.26653654783054
N         7.30397628567857   -7.04584974342827    3.91226947565763
O        11.50176230958185   -7.20935488627385    3.43508725906430
O         9.72904337927135   -7.50602164475686    5.22071968906607
O        11.00373081191250   -5.28680520222552    4.80424897428556
C         6.86840560984100   -3.34014780844904    4.12213841984672
C         6.41523083573798   -2.15794956337260    4.71566025740608
C         5.52706679400202   -1.33520159938707    4.05796068522862
C         5.06247873413045   -1.66711542659704    2.79227560835648
C         5.48101166383753   -2.84826263842491    2.20435552140678
C         6.36926897169654   -3.68364635114004    2.86062295497826
C         5.75030107418010   -5.97994825458467    2.41452933642793
C         8.12507711403366   -8.42182675180883    2.06296942323384
C         8.27470521614591   -9.67841278593609    1.46930607998347
C         7.85759701533668  -10.81719441901693    2.12424050724073
C         7.27621001888821  -10.73208121564533    3.38184962894577
C         7.09768127848008   -9.48959942010468    3.96604458866137
C         7.51172802113535   -8.33905819057527    3.31721776638326
C         5.91122629243506   -6.58897782945328    3.79851314278303
C        11.29536426474650   -4.56056023538435    1.53812152591395
C        10.11177022733465   -2.55074191338627    3.13085950617298
C         8.97878766448529   -3.27881754457319    0.66229772026226
C        11.39744318504041   -8.36007033331362    2.61028307631514
C        12.67148254281091   -9.18614373680458    2.73838346428738
C        12.60125383769644  -10.42714450516831    1.85902186662407
C        10.57616708413485   -8.36949155020290    5.96659448299213
C        10.05559062302243   -9.80264095937728    5.89242203317688
C        10.96099288644656  -10.76256858166939    6.65253325707971
C        12.19551140088782   -5.42068476805526    5.57548788306729
C        12.83531651577601   -4.04299500488496    5.70645949804589
C        14.10368624166026   -4.09541321557830    6.54815747395604
H         6.91401944875164   -4.78647921955100    1.26725664883220
H         7.54560782215228   -7.10686460289015    4.90110487531921
H         6.79201776758167   -1.90004135963296    5.69330202510233
H         5.19804442476536   -0.41914511388576    4.52669555964725
H         4.37961904588463   -1.01399779213015    2.27053945247367
H         5.12117954046361   -3.12403419935488    1.22072320031512
H         5.93242532928180   -6.74746458594219    1.65783096324391
H         4.74133146055270   -5.57264937323284    2.28027963656392
H         8.74004556552510   -9.73524420731073    0.49709308090335
H         7.99353215559221  -11.78239020530903    1.65810853995443
H         6.96352974024196  -11.62535948435028    3.90115555517594
H         6.63974814047982   -9.40776077203196    4.94306890029729
H         5.20266534931224   -7.41240771721152    3.94723641293694
H         5.73836508706961   -5.82044651621382    4.55547601990925
H        11.91035581526223   -4.91953211454265    2.35885450217539
H        11.78922877713986   -3.72908315249294    1.03463381133126
H        11.13629451717107   -5.37570019236576    0.83386706459534
H         9.20571507998453   -1.99036108598709    3.35651782216826
H        10.79819395940492   -1.93150002035368    2.55327959414616
H        10.57098367548678   -2.86035046245531    4.06600247337070
H         9.70657061849157   -2.58852798699120    0.23731918290018
H         8.76540468165640   -4.06606639745860   -0.05965559836022
H         8.06664539139734   -2.73238473195252    0.89714187614547
H        10.52951880558435   -8.95871452330655    2.90282929699374
H        11.25490963493401   -8.04094690166058    1.57364443867181
H        12.80627565021826   -9.47845429602458    3.78222686065579
H        13.52367322601721   -8.56746377432341    2.45076111373803
H        13.51043113242331  -11.01475522865915    1.95726008356928
H        12.48099814491245  -10.14609003044596    0.81582465840035
H        11.75414970578352  -11.04676134388594    2.14461863292820
H        11.60104899926315   -8.32287853000745    5.58341529345598
H        10.57789836929003   -8.02521558292410    7.00726167143206
H         9.98692874583285  -10.10256674330662    4.84475973480576
H         9.04708433526969   -9.83230909395970    6.30764919919267
H        11.96649139206724  -10.75245580360389    6.23732971433784
H        10.57336136696791  -11.77577545544080    6.58743239467398
H        11.02106764011772  -10.48282482137184    7.70192839072861
H        11.94316464615181   -5.81046386858677    6.56806872350049
H        12.88619719479984   -6.11510736522811    5.08659758635429
H        13.06364415744944   -3.66581625979118    4.70805208759521
H        12.10942762711318   -3.36841320324244    6.16319774585570
H        14.54284663803147   -3.10465569739869    6.62934529680586
H        13.88324994032847   -4.45684616532183    7.54990649704454
H        14.83595491071942   -4.76109532240800    6.09660623708995

