49
CSD_code = HEBVUG | q = 0 | S = 0 | Stoichiometry = C18H13B2Cl3FeN6O6 | MND = 6
Fe        1.41567643148085    4.57257989276191    5.01229816145964
Cl       -1.22596663911374    4.74222190024782    1.49304722577635
Cl       -0.33847760464118    1.65269579165216    7.80369133514394
Cl        5.24871079275444    2.88762041091621    3.64869412128454
N         0.35940372056701    6.10580466090057    4.75333383429424
N         0.58964859890837    4.14328287827643    3.33615086056175
N         1.38315185722195    4.98887676114276    6.84727064976056
N         0.47325091588553    3.04898724988993    5.69670996812963
N         2.90732351612198    5.71257836518115    4.89280498630817
N         2.76883475529939    3.31680362601843    4.49610265462798
O         0.47206281581296    7.19327923314778    5.51481760713601
O         0.67472678889852    2.93469790585746    2.76974741564620
O         1.74879434343366    6.17934680640433    7.32077576312297
O         0.20108249281551    1.97107203582137    4.95485990382829
O         2.88842460334608    6.97406837180376    5.32542111115716
O         2.49273498853372    2.06010744795677    4.13475984962860
B         1.76712921813902    7.26782603255065    6.27545362495091
B         1.06250192805772    1.84641918028558    3.72257866613415
C        -0.34442377679139    6.18429163190750    3.66235668728903
H        -0.90536119302426    7.06557544057373    3.39014861178939
C        -0.26950110356610    5.00679804543799    2.88574148887116
C         0.78075943017242    4.16154894983320    7.64918744175199
H         0.63981862499194    4.36414322101100    8.70012105153461
C         0.32812696816697    2.99883423452554    6.98620781762099
C         4.05322388162060    5.18423332155459    4.57870183012203
H         4.97587607232409    5.74501305764114    4.57429152599226
C         3.94890782593757    3.80975927824709    4.26936190652694
C         1.92478764349575    8.69295670083290    6.97243285398463
C         0.83558922308970    9.28516649435571    7.60682547229222
H        -0.11377057556923    8.77238815113367    7.59563837704498
C         0.95403456843570   10.51049821429911    8.23801792768628
H         0.09637743901313   10.95197738406402    8.72494044460898
C         2.17062983776819   11.17097849116078    8.24732934738516
H         2.26615065066463   12.12741218305280    8.74096392746426
C         3.26344368754616   10.59865073550155    7.61975334570814
H         4.21555654609617   11.10959070243479    7.62244211159986
C         3.13944766045464    9.37224790024996    6.99069850664008
H         3.99099678926513    8.92777190982526    6.49965440631536
C         0.88157505026111    0.39793380381955    3.08182218276484
C         1.44394798967982   -0.71432388972617    3.70286942141096
H         2.01731670435234   -0.57211916753968    4.60608749303331
C         1.28228813799842   -1.98421629190011    3.17846285230926
H         1.72616373702670   -2.83429787419994    3.67650461056151
C         0.55102869591292   -2.16682880371122    2.01725075143056
H         0.42162302638803   -3.15812135163815    1.60679818980451
C        -0.01289096550307   -1.07220683101683    1.38519638618959
H        -0.58405633491564   -1.20794279787933    0.47792568393035
C         0.15128001916048    0.19588390000473    1.91447867576129
H        -0.28695978397439    1.04893470532933    1.42017093162434

