106
CSD_code = HEBYIY | q = 0 | S = 0 | Stoichiometry = C53H46ClN3P2Ru | MND = 6
Ru        9.19695052517417   16.05614394991866   14.73404744103226
P        10.09757198748563   18.10004511811224   14.13607286114045
P         8.38381880857956   14.06348394727742   15.52288420599475
Cl       10.61366748605027   15.73738034737246   16.64587903784445
N         7.96451826497398   16.05417713442306   13.26583673296856
N        10.33208744538817   15.06708024113886   13.22873450474014
N         9.60040099427179   14.96971514738035   12.08683506808888
C         8.29605865665715   15.47334876776536   12.10278193645055
C         7.38799857511922   15.38486595158094   11.05752330196649
H         7.63961601364570   14.91944067585129   10.12478693048693
C         6.11650629915764   15.91192925840768   11.24095664205722
H         5.39656465410903   15.85335167969456   10.43969326802120
C         5.77715859813372   16.49496959227428   12.44706015422667
H         4.78788943561080   16.89165825688417   12.60310110611197
C         6.72318267619572   16.55314489472958   13.46570283114429
C        11.50793630771664   14.51220385929881   13.00454272786594
C        11.55292843859778   14.05225370420236   11.67706639311060
H        12.37568322806274   13.55917196337150   11.20048811905293
C        10.33582763905647   14.34965698463714   11.11321321867163
C        12.56404275950764   14.41035156888154   14.04047125710991
H        12.14167081485773   14.62174311262197   15.02150584996918
H        13.36298843169244   15.12429119719530   13.83972428136736
H        12.98871431337964   13.40817348000352   14.04150481839260
C         9.90783390499492   14.05843866043212    9.72076208052178
H        10.75042583145920   13.62203633760209    9.18905092876464
H         9.60555199847310   14.96716652915511    9.20130955628520
H         9.08511238953439   13.34313899029969    9.69533248202421
C         7.68411127848642   17.04998738993321   15.63643370141659
C         6.55321696030678   17.13056428235279   14.78458398398024
C         5.38953382228873   17.77659531452306   15.20759310279131
H         4.52438997757405   17.82234870496300   14.56018344268338
C         5.34118760053745   18.36932477434207   16.45070260072982
H         4.43683808030047   18.86632011640017   16.77465179677536
C         6.45717627852281   18.35557344529479   17.28445193837620
C         7.60520125943744   17.70034156644642   16.86140985619801
H         8.47834388580304   17.72052170606135   17.50394628700704
C         6.43961542353415   19.06119359398921   18.60583021309219
H         6.86223392239065   18.42848800799850   19.38426470363065
H         5.42756679429732   19.34222913365989   18.88936889064373
H         7.04705824248573   19.96545881640115   18.54712598031730
C        11.89611059935168   18.43624852577438   14.10026886062954
C        12.75742037274422   17.72544450671025   14.92613114060208
H        12.35518687151229   16.97307021947140   15.59077824028912
C        14.11542625001651   18.00159113104042   14.91236513043747
H        14.77991031159699   17.44411382471203   15.55635407073501
C        14.61725288141433   18.98929622562432   14.08321635344774
H        15.67640304771080   19.20296439639595   14.07065624586590
C        13.75650497239692   19.71617682328264   13.27365352976948
H        14.14414233737696   20.49845618221493   12.63660766167615
C        12.40201087500444   19.44668128084102   13.28277629836885
H        11.73015193919218   20.02094750211298   12.65859306967406
C         9.53500736805121   19.62339627182001   14.98468018250006
C        10.42495752300409   20.33598340821399   15.78597175575276
H        11.45620878919404   20.02431814297973   15.85915597643607
C         9.99888465099276   21.43744772680969   16.50567269912507
H        10.70404762803413   21.97694186355997   17.12139896038794
C         8.67697808330471   21.84341373300676   16.44609556650470
H         8.34590225623131   22.70468208024855   17.00816950944094
C         7.77805411600000   21.12493493064145   15.67691417593333
H         6.73767632072750   21.41454642822442   15.64356244525544
C         8.19863664606080   20.01719646600294   14.96483428254054
H         7.46741013225266   19.44221596099844   14.41899320336924
C         9.74430658167995   18.33165733139354   12.34952605346560
C         8.60109927145101   18.93102454978424   11.83306775571968
H         7.90955808754267   19.44043210998173   12.48426283069912
C         8.34084615930793   18.89602930057803   10.47361869888829
H         7.44608446487624   19.36566871014776   10.09124520157172
C         9.21535167215885   18.26527816745594    9.60671256274241
H         9.00800811774193   18.24143205622479    8.54669899740922
C        10.36174245494764   17.67008815423757   10.10815825737920
H        11.06075956528730   17.18484648064421    9.44133226632799
C        10.61626268900537   17.69370109317121   11.46539814923142
H        11.51091060277677   17.21998491682789   11.85005127973181
C         9.55574997376078   12.68489020538816   15.26160060179089
C         9.84537853757205   12.16209137240686   14.00391738542760
H         9.31212391286040   12.50423511420141   13.12872892172234
C        10.83045522218619   11.20420062073574   13.84718202189693
H        11.03147154776901   10.80071723614810   12.86445743601847
C        11.56742938928660   10.77819635429448   14.93851128820488
H        12.34013438895725   10.03356118536329   14.81317149918556
C        11.32130414018976   11.32702250178505   16.18620482211883
H        11.91033171078597   11.02009659377073   17.03791490021138
C        10.32829868207574   12.27430774017486   16.34792822586155
H        10.15967418137863   12.71646988395299   17.31905389907390
C         7.87722535574023   13.70318362992149   17.24038747748571
C         7.31760721545333   12.44965604608308   17.48667251687888
H         7.22696335349493   11.73674183555463   16.67654642551498
C         6.88549733204101   12.12041300182659   18.75543976033461
H         6.45495090145849   11.14696911852354   18.94229255959442
C         7.00325791064747   13.03875954023647   19.78846264763038
H         6.66338336887473   12.77904951004613   20.78064612871705
C         7.55799952728460   14.28262898441413   19.54661472426056
H         7.65476848762229   14.99751254023186   20.35060553498350
C         7.99549693649238   14.61726009591198   18.27542734835109
H         8.44408022172810   15.57876898350872   18.08545081008431
C         6.77615635769043   13.64210488264854   14.74291631476591
C         5.68384154553224   14.29387154714911   15.31966816594606
H         5.83238582718258   14.87761473027290   16.21878641903098
C         4.42480343735600   14.19998684808260   14.76201472865967
H         3.59456345975203   14.71210874964180   15.22596216915593
C         4.23111667320805   13.45834078651082   13.60808176827223
H         3.24937441738426   13.38761536682011   13.16325821976268
C         5.30364835355612   12.80267067180820   13.03169334488704
H         5.15990159058342   12.21322959387157   12.13700764113340
C         6.56761641605545   12.89587936683568   13.58991752386840
H         7.37771598125109   12.35832665791057   13.12314112427809

