35
CSD_code = HEBYAO | q = 0 | S = 0 | Stoichiometry = C8H16N2NiO8 | MND = 6
Ni        0.00013106054460   -0.00007572288340    0.00000804057091
O        -1.75384683468231   -0.48193844762716   -0.55293770954976
O        -3.34865154915458   -1.93239822678523    0.00079940462966
O         0.67114004525568   -1.47655440560070    2.31762455472070
O        -1.04606077029266    1.69990978923129    1.37973240839153
N        -0.25242156833546   -1.20401028219848    1.33304237807008
C        -2.26723445686473   -1.41137335969543    0.16309774950173
C        -1.35729428553562   -1.84250257681772    1.32305721949942
C        -1.76767915184045   -2.88034210767705    2.29660849529182
C        -0.54429446882331    3.00500900281612    1.60477054545581
H         1.40401757531083   -0.84878937542593    2.16258991032647
H        -1.97926159933871    1.75862985367760    1.13930511217041
H        -2.75428063661765   -3.24814936539119    2.02571858936537
H        -1.04824438181969   -3.69868575018404    2.29995069647407
H        -1.78591429302708   -2.45910406560679    3.30143791015273
H        -0.65014069390090    3.63696320727862    0.71787929055434
H         0.51274651720427    2.90101332746406    1.84291838528656
H        -1.05892895500343    3.47571085347235    2.44762786017964
O         1.75416384627783    0.48161074044938    0.55283535960012
O         1.04618086935826   -1.70008306519385   -1.37968890913763
N         0.25271561870545    1.20381523568643   -1.33307246691297
C         2.26697139955705    1.41204953188203   -0.16233837069646
C         0.54377528772164   -3.00481402896145   -1.60520589499783
H         1.97926445897358   -1.75929394845241   -1.13889861828518
O        -0.67094827726253    1.47662885834802   -2.31748852555530
C         1.35753681302416    1.84240525744302   -1.32296224856607
O         3.34892256880890    1.93217299743451   -0.00074443096035
H         0.64862244354771   -3.63697312292191   -0.71831997627482
H        -0.51307502179060   -2.90016800403934   -1.84399790187293
H         1.05866340172712   -3.47572942061325   -2.44778265107367
H        -1.40391317606065    0.84896816194411   -2.16245953942501
C         1.76796629992888    2.88029170829079   -2.29645720540962
H         2.75449735499417    3.24820753071393   -2.02542442297633
H         1.04851818461187    3.69864079636624   -2.29998188691623
H         1.78635637479787    2.45895842357600   -3.30124315163264

