48
CSD_code = HEBZAP | q = 0 | S = 0 | Stoichiometry = C21H24AuPSi | MND = 2
Au        4.92394696906808    1.68261831123285   12.05345366979109
P         2.85406093553844    1.70111583712659   13.34387712708432
Si        6.91400838953205    1.71009506077379   10.84230937931983
C         2.50347192121859    3.31275153453264   14.13979190455316
H         1.57987573985124    3.27255160654303   14.71731869688056
H         3.33488849682596    3.57068924021603   14.79394811376998
H         2.42089404748069    4.07611179707957   13.36776383594798
C         1.27129307928081    1.37529312432251   12.47740278338508
H         0.42542716563562    1.46987341743694   13.15821287379183
H         1.16574568557791    2.08612689693245   11.65938212860936
H         1.29704219191395    0.36945436292813   12.06121387511576
C         2.72659311613408    0.55958892573559   14.77259504339332
H         1.78431999646062    0.69882455245472   15.30252996941288
H         2.79785723765405   -0.46574678155954   14.41308194955387
H         3.55922611719539    0.74822964656510   15.44842981539568
C         6.77741210982725    2.52490516532750    9.12403164952028
C         7.07506946754342    1.85656216792935    7.94358341035210
H         7.41824274735776    0.83236318488689    7.98953101907285
C         6.94638256887388    2.47840644383790    6.71381479989760
H         7.18671155649120    1.93885636652779    5.80751459980540
C         6.51526847824074    3.79166819886924    6.64240270971521
H         6.41762973791248    4.28225304668839    5.68381514809066
C         6.21055960985362    4.47452038835272    7.80868883075892
H         5.87452498903978    5.50196328436949    7.76148203381042
C         6.33716616310180    3.84099373183651    9.03047877243187
H         6.09909290392925    4.37809259454162    9.93992167697445
C         7.64970034965930   -0.01386825298621   10.49293053201585
C         8.96928458791175   -0.33997019744908   10.77898399973984
H         9.61700674744112    0.41132621087361   11.20924798880090
C         9.46835056917722   -1.60511360490664   10.52298623240842
H        10.49992868367905   -1.83594653248506   10.75283452043125
C         8.65011936452520   -2.57454354257680    9.96948153365668
H         9.03752609654019   -3.56304758047601    9.76493327102035
C         7.33036622334776   -2.26952750053413    9.67915368303868
H         6.68425683007761   -3.02161132936483    9.24586782928611
C         6.84159726244305   -1.00422234004659    9.94536870811353
H         5.80852211183386   -0.77063699236252    9.71941522352338
C         8.35001617100427    2.64856125202794   11.67666718987773
C         9.17205564282860    3.53298882690241   10.98965379785376
H         8.99687721637284    3.70748507627648    9.93709440654631
C        10.20965047129263    4.19168264254044   11.62582331735021
H        10.83747395847265    4.87489249241258   11.06971914568335
C        10.44786967286423    3.97398236143050   12.97181203923506
H        11.25954144944658    4.48464499406263   13.47132618072331
C         9.63947217314388    3.09554229510316   13.67435282511076
H         9.82051083007177    2.91774482253687   14.72619075736626
C         8.60281767720025    2.44767838020532   13.02885327694920
H         7.97374448912725    1.76109641331538   13.58172772482986

