92
CSD_code = HEBZAQ | q = 0 | S = 0 | Stoichiometry = C48H38OP2PtS2 | MND = 4
Pt       -0.90749168340203    2.16123653944688   19.33920301022257
P        -0.70018219781806    2.47808564807464   17.01369673277847
S        -1.22303973187606    2.64194043297022   21.57945839766704
C        -1.80813059952156    4.04856469325231   20.62127507848786
O        -2.41880874563386    1.85254066457327   21.97586866647010
P        -2.66367625548816    0.60545485390427   19.64062973554119
C        -0.91872235226453    5.07770364741017   20.27007920274479
C        -1.39962527537297    6.11479530909329   19.47238959864179
H        -0.72053358805348    6.90297681953114   19.18110230449401
C        -2.71582035046925    6.14408543353271   19.04911897543023
H        -3.05866113750088    6.95437071391149   18.42301492455429
C        -3.59802572216844    5.15099603138433   19.44966083367244
H        -4.63663555920803    5.18826350755566   19.15372227891866
C        -3.14588047288890    4.10754249977295   20.23509668787847
H        -3.82128960701154    3.34495978936252   20.59881868672230
C         0.43630099238104    5.16972016987175   20.83854763974723
S         1.35786806771270    2.74258791483389   19.76802266210683
C         1.44165759826450    4.20001136461091   20.71808666236876
C         2.68185537767268    4.42656129404444   21.32201060312858
H         3.44453215334304    3.66990842475906   21.21145422857167
C         2.93514164584492    5.57609358603075   22.03435913697687
H         3.90055914580537    5.72156524589716   22.49637333395271
C         1.94698872998003    6.54261689770112   22.15294846193185
H         2.13018503264265    7.44996994142971   22.70878994975686
C         0.72225024966820    6.33257010382318   21.55447956166180
H        -0.05788899538672    7.07502608755645   21.65151686686466
C        -0.40794966794422    4.24483078340374   16.65457824297635
C        -1.32349738998038    5.09093257539149   16.04137409079572
H        -2.27584791204667    4.71343468875655   15.69903178542979
C        -1.01295963162065    6.42732564827714   15.85552657418697
H        -1.72983955482269    7.07839842695955   15.37593959267786
C         0.20402379217600    6.93095273440802   16.28004290163561
H         0.43616674117956    7.97653322155107   16.13916641589417
C         1.12414601811624    6.08893718502574   16.88526403462173
H         2.07628952740597    6.47419361084562   17.21963785923094
C         0.82233958105173    4.75461826532545   17.06815035714495
H         1.53449924741391    4.09509781610789   17.54572079387092
C         0.70374251242391    1.74804457417253   16.11977775208611
C         0.95487269234804    2.08685799035192   14.79283892002304
H         0.30688627148478    2.79095919475026   14.28791952772042
C         2.03305504161565    1.52844061693386   14.13289768867659
H         2.22629188641903    1.78775605138913   13.10202383520636
C         2.87015024044676    0.64189278700145   14.79365832467152
H         3.71231877629720    0.20940679010270   14.27364487420263
C         2.63621470477399    0.32200475703559   16.12048377254798
H         3.29889862741951   -0.35411218354978   16.63978050903339
C         1.55509203468374    0.87458381991097   16.78419225574914
H         1.37778363783646    0.65526006307661   17.82995621286383
C        -2.16345633970062    2.08519923730060   16.01330248186290
C        -3.36058291755957    2.66277988361400   16.43392012129861
H        -3.35089939060474    3.31368808082582   17.30165787359488
C        -4.53662633803008    2.40490801003546   15.75567129365194
H        -5.45912902327597    2.87172310115197   16.07126040997584
C        -4.53340570411860    1.54055749201234   14.67211012800312
H        -5.45312693766027    1.33048934057422   14.14672312555143
C        -3.35200398032246    0.94151460170891   14.27012445403609
H        -3.35141080245778    0.25815557093900   13.43377901030772
C        -2.16793625018779    1.21319013412580   14.93264374993080
H        -1.25017237910744    0.74164697045236   14.61407698938537
C        -4.39488227761184    0.84702026314935   20.14107931585427
C        -5.25794146502417    1.43929630672111   19.22163869259187
H        -4.88478611924429    1.69955689852470   18.24141580766424
C        -6.57381964460800    1.69253888209551   19.56124067841715
H        -7.23876987528357    2.14753500344525   18.84078208679979
C        -7.03636229795787    1.36901860583898   20.82665706881645
H        -8.06331759653759    1.56985177362571   21.09493213981466
C        -6.17494990307938    0.80053796126548   21.75085992846905
H        -6.52969848361859    0.56285350860840   22.74311288100671
C        -4.85749291845235    0.54313128043866   21.41631770865064
H        -4.17838307648571    0.13606023655758   22.14893462745503
C        -2.81668028917891   -0.44761422686432   18.14598255119247
C        -3.98609354239457   -0.97303405560381   17.61644830218300
H        -4.94127423580001   -0.75442453417984   18.07192094988006
C        -3.93408031498879   -1.78590509188909   16.49613899369971
H        -4.85017841072000   -2.18501166213595   16.08492781306570
C        -2.72071778144719   -2.09465498824480   15.90743257646438
H        -2.68926317159020   -2.73152834353322   15.03565366188608
C        -1.54630961918112   -1.58868154252620   16.44273623259087
H        -0.59343437532025   -1.83107946491467   15.99447921442555
C        -1.59973095019915   -0.76867541674783   17.55098662316253
H        -0.68899225690326   -0.36655693067793   17.98493281549391
C        -2.02073367431753   -0.71697154147873   20.71497998515185
C        -0.70341320099005   -0.67754836690069   21.15168588879742
H        -0.07439985790357    0.16900954637981   20.88899517818142
C        -0.19418782442136   -1.70775927009934   21.92134209442507
H         0.82802923767656   -1.66523249157222   22.26744887413355
C        -0.99393970667965   -2.79020875842083   22.24594893941794
H        -0.59967499338372   -3.59276531466782   22.85204394228994
C        -2.29965218625984   -2.84891249103613   21.78465328828961
H        -2.91991274195311   -3.70074791950199   22.02421911994024
C        -2.81201586170749   -1.82132917180596   21.01527649524461
H        -3.82629441728754   -1.87511813817300   20.64339534435220

