49
CSD_code = HECCUN | q = 0 | S = 0 | Stoichiometry = C21H23AuIOPSi | MND = 2
Au       15.04698681338552   15.34217997308181    4.12521610055030
I        16.36822636065200   15.69408690832626    1.96514749004835
P        13.70023248520461   14.97244026034683    5.89615132382965
Si       11.69462722384827   13.74477761766586    2.42325456798585
O        12.16331110935173   14.64382929552636    3.75380481206170
C        10.07893234350918   12.83474099265118    2.86693777738088
H         9.26487393361662   13.51951686408465    3.08821599207067
H         9.75556537751156   12.19625480551142    2.05170254122206
H        10.22075117724525   12.20422800126521    3.74149520615037
C        11.52665715170907   14.85994297043532    0.89019044731442
H        10.65316700397189   15.50600079875470    0.92307500506604
H        12.40103394566664   15.49711859288803    0.78111580791943
H        11.45147641138644   14.26061502378512   -0.01161293743568
C        13.14823274009783   12.54091329467954    2.26026103243020
H        14.06073097737289   13.05541254491326    1.97574015943084
H        13.34115817529629   12.01166477617702    3.18944248916745
H        12.94368320070350   11.80138868924110    1.49359345862085
C        12.15016141464382   15.87584491761636    5.70910961703384
C        11.52934243002404   15.57302600023870    4.48840052225855
C        10.36260645621940   16.22913603795902    4.13301293369033
H         9.88538763928172   16.00203516252936    3.19331779050354
C         9.83199166541578   17.17983594706237    4.98976738473371
H         8.92267557452604   17.69135680535709    4.71166643899006
C        10.45252043309108   17.48654473755708    6.19054069856687
H        10.02698823352575   18.23359907891375    6.84294609100221
C        11.62174810331406   16.84023126674739    6.55285835278500
H        12.11989954445123   17.07600938810558    7.48290668295083
C        13.16959249222361   13.25294350567331    6.12061777243565
C        11.87310269463870   12.90235629282787    6.48008378437936
H        11.13778684460359   13.67349589478852    6.66775357078145
C        11.52960730558514   11.56683666469800    6.58667779764540
H        10.52149412796596   11.29332939004785    6.86309570008337
C        12.47201373115329   10.58107224068614    6.33988285898395
H        12.19662633367771    9.54018154375016    6.42161345479319
C        13.76608448664317   10.92829570796735    5.98649345700762
H        14.50016848941624   10.16056862781679    5.79149969559607
C        14.11317497420632   12.26177632950239    5.87201597986154
H        15.11691171887247   12.54627720500765    5.58081172546492
C        14.25905493395629   15.47827809651941    7.54846017005856
C        15.00129941310020   16.65406573385738    7.62160352126836
H        15.21842835999788   17.19978295797600    6.71090830368600
C        15.45337179485075   17.11534081669604    8.84317305429307
H        16.02571502369613   18.02945409726109    8.89754052036838
C        15.17726753830521   16.39617115318812    9.99559941839144
H        15.53408495943504   16.75181272268003   10.95064422633850
C        14.45026578526740   15.21888058002740    9.92447624844919
H        14.24064622503503   14.65817564708120   10.82362875054848
C        13.98974699456974   14.75559829633592    8.70483346552326
H        13.42348784779214   13.83607574424948    8.64842873772353

