88
CSD_code = HECDAX | q = 0 | S = 0 | Stoichiometry = C34H42N6O2S3Zn | MND = 5
Zn       12.53230270338318    8.84905036710412   21.10708335122650
C        12.17361474114852    8.55122149272644   23.20464825169173
S        13.75429915471955   10.84897998849318   21.86129310772782
N        12.50311155466069    9.46586082008816   25.31937610987234
N        12.73129113136339    9.59476651744046   24.02572651799886
C        13.43445840787358   10.63105569685414   23.49391203588738
C        13.92363110852762   11.59071229161290   24.42709859624408
H        14.48234119304747   12.41603671389606   24.01570790964568
C        13.68805988429085   11.45613560423292   25.75591489250413
H        14.05625226732397   12.17984773760013   26.46500162639360
C        12.93682488458271   10.32463968254987   26.18496175959340
C        12.61269306945966   10.07012941264837   27.63854617308030
C        11.80669423979693    8.77815089189781   27.77573262378471
H        12.37124936978240    7.93589543954289   27.38697428964813
H        10.88104673733523    8.84664063437923   27.21208855109711
H        11.57258906021421    8.59570903167037   28.82154181312469
C        11.78962949684942   11.24765281478859   28.17570798392535
H        10.87011022525441   11.35599094011379   27.60502657107737
H        12.34427136530704   12.18110191380193   28.11769382111499
H        11.52980138065868   11.06934609844056   29.21628341519959
C        13.92369460590255    9.94246849666977   28.42437026032361
H        14.50793171669337   10.85827500375645   28.37728398034163
H        14.52448048552735    9.12830463123663   28.02542672127285
H        13.70641633266556    9.73011679306704   29.46829770726702
S        10.39280113684827    8.46340940739546   23.53798463134449
N        10.10325116614759   10.05673888413910   20.00858540860889
N        10.54397294613365    9.65177418945384   21.16818684778702
C         9.74903101597879    9.01326758885254   22.01468558570969
C         8.39673804615546    8.78565663829031   21.71238944651525
H         7.76285820535793    8.29168248066341   22.43263575584415
C         7.95511453116189    9.17583215494952   20.47665079195492
H         6.93605207521025    8.99415339131669   20.17130114634153
C         8.87028411348360    9.82056879560258   19.62018060512271
C         8.49322252029712   10.26582794901187   18.22541751912766
C         9.70867088362557   10.87671117564845   17.52788697678363
H        10.52765503794327   10.16417408057825   17.51068142343870
H        10.04749958713910   11.76019074396772   18.06039627008301
H         9.45227594348334   11.15227821215803   16.50751805631236
C         7.37147798545538   11.30870351847291   18.31480572276844
H         7.69883466238608   12.16496035052253   18.90027768568975
H         6.47886605600869   10.89464741223118   18.77826013189009
H         7.10981742075712   11.65351296744619   17.31728279051335
C         8.01445051689149    9.04398702853337   17.43069787650374
H         7.11971963661534    8.60741907174861   17.86850690797168
H         8.79226405826105    8.28450068453989   17.40335923978998
H         7.78504331358992    9.33733072471646   16.40896147010977
S        12.87129909507137    6.96988338812846   23.75645251662090
N        14.74873721326114    7.09928836718107   20.36120763796450
N        14.06876575778438    7.41182976282148   21.42452381534639
C        13.79897568900899    6.50555133419274   22.35470817823817
C        14.26632263789159    5.18849847699292   22.23696035476283
H        14.05905876106056    4.47464914587236   23.01928060537129
C        14.94995908626088    4.85734747801501   21.09448181658104
H        15.30232883271755    3.85032258573550   20.93997622580675
C        15.17328278628289    5.87019661548871   20.14453913589908
C        15.87739652763323    5.67781888338476   18.81888112533751
C        14.86620854432813    6.02128705558218   17.71600523429582
H        15.33889511532826    5.95704244542665   16.73884066791770
H        14.48934069721550    7.02915411337918   17.86485963053093
H        14.02153167866902    5.33447083631970   17.73937997744459
C        16.39109649815524    4.25150775699768   18.62491176259527
H        16.88784770914386    4.17715951819794   17.66023223179853
H        15.57323361961864    3.53412912128293   18.63663960690796
H        17.11157429667111    3.98493867193614   19.39580459394092
C        17.05084810918108    6.66339323822277   18.75567867564977
H        16.68647626211720    7.67495841597393   18.90751590730790
H        17.53851125877356    6.60245745144163   17.78580413102048
H        17.78364592189323    6.43596516122484   19.52769130298039
O        12.53736399317899    8.68970015243986   19.13668812393019
O        11.47487331113062    7.18365663288246   20.31024885364680
C        11.79683083892126    7.67841674874319   19.20589062109692
C        11.27587702332143    7.07995361214686   17.94742757031297
C        11.66054672678261    7.60738424602604   16.72202061791799
H        12.35963132018956    8.42957523577307   16.70931601539975
C        11.14635511862011    7.08612799249272   15.54398907317040
C        10.24465324549669    6.03248971572827   15.61721295147289
H         9.83488206005099    5.62234749673057   14.70382362984050
C         9.84982892827582    5.49091783614621   16.83580181563264
C        10.37420017806482    6.02362064584762   18.00272811539121
H        10.08949383910536    5.63851088132342   18.97085744092019
C        11.56780357803197    7.63859033528495   14.21592572616482
H        12.39706245142088    7.05387627125820   13.81685359322821
H        11.89862579480201    8.66900302409339   14.31589282869702
H        10.75054683645379    7.59467358468142   13.49914167254132
C         8.87096147578188    4.35530901516194   16.87106516024518
H         9.28946829065194    3.47912420876658   16.37645850635097
H         7.95462936354702    4.62608164725407   16.34812380306636
H         8.62343355278675    4.08957442858034   17.89540838640277

