78
CSD_code = HECGUS | q = 0 | S = 0 | Stoichiometry = C37H35ClNO2PPd | MND = 4
Pd        6.78981312263824    2.91455360477872    0.59178869725080
P         5.99685782113872    4.34604503874300   -0.89817630143727
Cl        8.55587447901017    4.35540101922009    1.20713492181123
O         6.06562635567773    3.60680540481436    2.91008362693515
O         7.79083699882453    4.12124281898273    4.25341754809222
N         7.58628959323489    1.54241767121287    1.86514307363100
C         5.51043634362238    1.41374852703820    0.05839836490284
H         5.12377847730821    1.01098561490552    1.00310439879597
H         4.68136392833314    1.65283992207387   -0.61357991487917
C         6.48122325410486    0.52673227591079   -0.57919405141855
C         6.35047763535276    0.19143504340535   -1.93234547901096
H         5.56157199929154    0.65830897548308   -2.50648220677910
C         7.18633993358523   -0.72142204746164   -2.54437206581543
C         8.16713350456695   -1.35721954772414   -1.78431128817956
H         8.80894490723371   -2.08679879954815   -2.25749014348967
C         8.34397178334484   -1.06427584000385   -0.44507589538262
C         7.52308354244710   -0.09866842082231    0.15903177772042
C         7.77806244500047    0.33181494676536    1.51551393131591
H         8.18224103200833   -0.39025466924741    2.22943051204042
C         7.85505934637753    2.00284838061121    3.20519721575340
H         8.93316546031439    2.16836650041821    3.32898694580118
C         7.15269066278664    3.35474228530616    3.38455577741025
C         7.28723576258563    5.44389527686185    4.39204076042038
H         7.83485558497110    5.89484087030719    5.21516573453905
H         6.21522765150298    5.42482252223312    4.59878169329355
H         7.47311087846571    5.98743997400156    3.46230919762379
C         7.32773175657122    1.08049564954326    4.27972748264447
C         8.15670858608896    0.60597831725567    5.28644139446997
H         9.19566373250165    0.90160541129516    5.30978280740879
C         7.65349165688079   -0.24142571191980    6.25860782146509
H         8.30455104762740   -0.60859241106115    7.03818865854356
C         6.32174658800471   -0.61858715043418    6.23149885681310
H         5.93191620582065   -1.28152247056004    6.98958500621091
C         5.48930190834060   -0.14079252236074    5.23257063367959
H         4.44821855354314   -0.42723155813430    5.21203778436503
C         5.98859515302965    0.70660664582868    4.26091058590579
H         5.34099723352180    1.09389282642813    3.48643591267887
C         4.23716403026224    4.78438925416980   -0.78271527076959
C         3.62374578868616    5.66223944287608   -1.67094288843428
H         4.19516626950344    6.09627556448162   -2.48036132286303
C         2.29152846300826    5.99135548321475   -1.49974233289571
H         1.81017268131466    6.66664233152273   -2.19241625759828
C         1.57582311940704    5.46577011741548   -0.43489719217427
H         0.53586019001961    5.72804604267668   -0.30584191515116
C         2.19556277366583    4.62234455919092    0.47291295112103
H         1.64152175099464    4.23489094877988    1.31527480204909
C         3.52606892104030    4.28287053656647    0.30245854981355
H         4.04198587016285    3.64269682595196    1.01496607603017
C         6.32821261247389    3.64059439702621   -2.53945711633200
C         5.44436045782628    3.57205382580898   -3.60710104242007
H         4.44786994489755    3.97982906340740   -3.51616860103802
C         5.83984514290696    2.96020704475206   -4.78587311983148
H         5.15093041157870    2.90450471414071   -5.61680255686734
C         7.10884960991677    2.41889150381479   -4.90251507555188
H         7.41024813585504    1.94867441189188   -5.82717818995812
C         7.98751817586165    2.46608643559101   -3.83020268162745
H         8.97035059925015    2.02685325553580   -3.91502419308139
C         7.59506044899202    3.06381917894921   -2.64923056245852
H         8.26337465383068    3.09033696700549   -1.78638690882219
C         6.72246851984011    6.01081167365064   -0.97321072769347
C         7.38849630146659    6.52980521400525   -2.07409353798367
H         7.49814989709510    5.93691234226258   -2.97212052666968
C         7.91979633885467    7.80733286402839   -2.01032539395144
H         8.44209284979052    8.21298371076119   -2.86495233863684
C         7.79179280842412    8.55970007050436   -0.85578336034357
H         8.21617247326679    9.55209652752417   -0.81009741329156
C         7.13034856472242    8.03900066306380    0.24676554542396
H         7.04193114415311    8.62497726495360    1.15013761189823
C         6.59707254190360    6.76749111119380    0.18944114191341
H         6.09368453360663    6.32934188649509    1.04431698045971
C         7.03076592310398   -1.06397916197150   -3.99403028734388
H         7.97879807977468   -0.94371300277522   -4.51609144037866
H         6.28739378197523   -0.42625946205374   -4.46510630341048
H         6.72102333421335   -2.10325397427304   -4.10406166603006
C         9.44015247006366   -1.73867973396758    0.32697497061356
H         9.03900311449171   -2.27034966832629    1.18981678553031
H        10.16554226155981   -1.00917577567665    0.68519307459224
H         9.95950008477113   -2.45588882825867   -0.30387204087985

