28
CSD_code = HECQOW | q = 0 | S = 0 | Stoichiometry = C9H13Cl2NS2Zn | MND = 5
Zn        9.69892684425979    8.62391064722062   -1.45455077149680
Cl        9.79541881920786   10.13472720574796   -3.12435627558732
Cl        9.05564692997520    6.79445777602686   -0.30601250522100
S        12.05078842796476    7.40494821113303   -2.15487049198179
S         8.18634395438450   10.34375066989505    0.05496877107386
N        11.15131382640064    9.47794652917321   -0.05360295548995
C        13.09463206631734    8.75992557207717   -2.76491483683645
H        14.11630161184188    8.60058436844591   -2.43343564751191
H        12.70790182870091    9.71533650006004   -2.42513432212600
H        13.04059815954861    8.71517861009755   -3.84753786402515
C        12.44065089379379    7.45566255605781   -0.37228392043055
H        11.72923463461044    6.74768971079452    0.06279391807475
H        13.45813498119255    7.09353551480813   -0.22879747005810
C        12.25229405213825    8.79744823697701    0.25026372998382
C        13.19195409695942    9.30561147800271    1.14135006388984
H        14.07938293591210    8.73845120266030    1.37248204394744
C        12.95873059190575   10.53654418454371    1.72951131760357
H        13.66760458037147   10.95158756193452    2.42967622417189
C        11.80366812594496   11.22790046067862    1.40738904270157
H        11.59261560631628   12.19112077640421    1.84362262839184
C        10.91607774982891   10.66589540532070    0.49577213676318
C         9.68051513565684   11.39259481348144    0.08607787331732
H         9.77751019121033   11.72581985423441   -0.95128003111965
H         9.49150739239456   12.24744667176875    0.73443943849725
C         8.23369532172887    9.64493147190956    1.73051570634111
H         8.30772778098009   10.45288349345187    2.45208444254204
H         9.05992928855716    8.94757229095814    1.82442278676988
H         7.29749417189655    9.11213822613659    1.85930696781512

