54
CSD_code = HECVUI | q = 1 | S = 0 | Stoichiometry = C21H28ClCuN3(1+) | MND = 3
Cu        0.11991972828971    3.36966757396488    5.83925436957740
Cl       -4.32077534358621    9.10872071801563   10.38156097285434
N        -1.25377511521380    1.98667134727565    6.06999706535176
N         1.72798872788538    2.52321533072822    4.78871966365943
N         1.20830952868516    5.13424088033321    5.98764150860237
C        -2.07673389093872    1.90963670068457    7.11735089091901
C        -2.77969657344996    0.76431694441962    7.43505555751079
C        -2.61244145841305   -0.35685489561677    6.63500837266950
C        -1.75635903309967   -0.27708543340449    5.54961324897555
C        -1.09018955819800    0.91302309438221    5.28379584605229
C        -0.16669546466093    1.03442786854936    4.10437681699292
C         1.31675737273885    1.14382121555142    4.50939676153286
C         2.91401781628024    2.53314579798043    5.65640152045590
C         3.44001727928654    3.92495313045645    6.00091763472240
C         2.45715890354191    4.84764345643965    6.71962990831364
C         1.92085997699237    3.30314039210221    3.55301502404112
C         1.11890399166114    4.60871284797100    3.53965559826210
C         1.47521982995924    5.63039529019308    4.62160074253319
C         0.40875614689965    6.09684828324808    6.76239833725299
C        -1.06095558327908    6.09850438478634    6.33048278946031
C        -1.89919403358237    6.84969427244260    7.32904633018258
C        -2.26512478170398    8.16976099079934    7.10341698598160
C        -3.00882160282048    8.86990203797203    8.03593523941389
C        -3.39206119349419    8.24489136277922    9.21279053400872
C        -3.03431560552406    6.92667091380928    9.45614961194129
C        -2.29054979059011    6.24069698291238    8.51519192943547
H        -2.18204976361128    2.80732915276731    7.70971686852782
H        -3.44289766520144    0.75162138233051    8.28403578354471
H        -3.14192229846898   -1.27188812167752    6.84928671155673
H        -1.60816464941807   -1.12997149237786    4.90643019053668
H        -0.29137242358263    0.15517994435595    3.47256226037235
H        -0.44811150150071    1.91254728026813    3.52001777744512
H         1.93883688992367    0.71361958780731    3.71378145475056
H         1.47609518786365    0.54498443229216    5.40961928438161
H         2.64573253870029    2.01889781975058    6.58365685291202
H         3.73214084596283    1.97107503851907    5.18162789665401
H         4.29009701587654    3.78560702410114    6.67173118357180
H         3.83000310564769    4.41053065667737    5.10774924498823
H         2.98017640789449    5.79109144553953    6.93261246072742
H         2.17998717763169    4.39396135061475    7.67466775263144
H         2.98231999336800    3.51140206849806    3.39737842485358
H         1.59104050485558    2.70798203459270    2.69763418387369
H         1.26686647058345    5.08178260769558    2.56675026342739
H         0.05491865320511    4.36997058628905    3.63437144274409
H         0.86670891574158    6.51885596092001    4.44275036866008
H         2.51875485165265    5.93872392417028    4.52556089359126
H         0.45199703672094    5.80311561676232    7.81350412798269
H         0.82686604335382    7.10737628155351    6.68048082511090
H        -1.17382579565046    6.54771012150414    5.34354798987879
H        -1.39433789991006    5.05094977100030    6.27081959439955
H        -1.97108805529941    8.65998496994803    6.18712846515527
H        -3.29138439065052    9.89412546541405    7.85316746497825
H        -3.33799134286911    6.44770070905725   10.37320053594298
H        -2.01201612651210    5.21397289286545    8.70720643609849

