78
CSD_code = HECWUJ | q = 0 | S = 0 | Stoichiometry = C22H49N3OOsP2 | MND = 7
Os        5.03351195103309    1.71658708537889    4.49330670656296
H         4.79348122328499    2.19217656995568    5.96620839035772
H         5.40052981296653    0.59568056958988    5.54322715805099
H         5.51822808619612    0.40435260626187    3.79884305490898
P         7.28759347039216    2.48331085735114    4.40967903110481
P         2.78262757290355    0.93862601359168    4.26805976855061
O         4.77076863767387    2.34842109917514    2.41364614661497
N         4.42228869729828    3.72737636776055    4.09173587240430
N         4.02174578134392    4.41105918308448    1.84494341929283
N         3.23290235001603    6.49805235112345    1.36119243071332
H         3.37048369455041    6.24071568678201    0.39864291844831
H         3.21987791777896    7.47638273104497    1.58926474288974
C         4.39478374607343    3.49825645417206    2.74851450098254
C         3.68517681636147    5.61171741762547    2.28883529711914
C         3.74355659786387    5.94422654524626    3.65460506300408
H         3.49576496768145    6.93286650361564    4.00336210712585
C         4.11968597433221    4.94367709957524    4.52047076156598
H         4.18672692739859    5.12231190210372    5.58830894854861
C         7.63313080823474    4.19851422003673    5.10867681938349
H         7.04811495483089    4.83281838408497    4.42567765772778
C         7.04746089103357    4.39127102945693    6.50650118754282
H         7.72010738467605    4.01424974142837    7.27116860756395
H         6.09879630378891    3.86739412662412    6.60071108866915
H         6.88341818668898    5.45175646914649    6.69736568558980
C         9.08184902684187    4.67862121344252    5.08579942300639
H         9.10991004540629    5.73937026940458    5.33717878985843
H         9.54606610247186    4.55442183703824    4.11116345582707
H         9.67369648670005    4.14937401813240    5.82824547232146
C         8.43996173541213    1.24676290307395    5.24239367970427
H         8.02003166594358    0.29204676981215    4.89639815210116
C         8.25498808460478    1.29338425833805    6.75776605749845
H         8.61895534929891    0.37018930280823    7.20587937707887
H         7.19916360382436    1.40199721775567    7.00285403253307
H         8.81403070516537    2.11811661572745    7.19188987780173
C         9.92626128573145    1.26721631486939    4.89181338173554
H        10.38580218008152    2.22683636010626    5.10883838299761
H        10.10320860742441    1.02135579988442    3.84846090644668
H        10.43178009616096    0.51332031480952    5.49516063669946
C         8.10692080980902    2.62878330689893    2.72633405677477
H         9.17991109253514    2.74504942351585    2.92046138323052
C         7.64448595069608    3.82085450133658    1.89135762267811
H         8.18984120985223    3.82634753876960    0.94694509168599
H         7.83016882285480    4.77202582329281    2.38698289061626
H         6.58645885153309    3.74797401475097    1.65622509964421
C         7.87625103276329    1.33922049979004    1.94366458571750
H         6.82240786187922    1.24927594379154    1.69177220877062
H         8.16538340291814    0.46315076246801    2.52061305578561
H         8.45107656408303    1.35179921925125    1.01769744482165
C         2.32350771657837   -0.59701188488476    5.25170857834879
H         1.27667173040185   -0.82912428407963    5.02326496348570
C         2.45341234808675   -0.35611420095106    6.75315443841934
H         2.33955029761115   -1.29897851319661    7.28685689454873
H         1.68969866292825    0.32432125505770    7.11835274153163
H         3.43943619282258    0.04968868772780    6.97806821763416
C         3.20028940404178   -1.78187073675686    4.85946949197206
H         4.25008348280479   -1.49818483879847    4.91473801144899
H         2.98152044912660   -2.12758931778705    3.85387564653781
H         3.02739032549549   -2.61372072342668    5.54146452106905
C         2.22736567273289    0.50165608414713    2.52456110855642
H         2.11191266858504    1.48516152534495    2.05063446329050
C         3.28021512277013   -0.24179571054280    1.70573257670873
H         3.49535761646271   -1.22737430222650    2.10684900436437
H         4.20274760435887    0.32800037346934    1.67652631366141
H         2.92103361414720   -0.35948258413299    0.68319586414596
C         0.89309567423298   -0.24119942874778    2.45652314762646
H         0.52936033182723   -0.23020185432425    1.42915380285465
H         0.13108701533953    0.21182589090313    3.08636714437051
H         1.01380264178346   -1.28061161932100    2.75255509157765
C         1.34814501334740    2.05603434919305    4.79785230391239
H         0.52603195522566    1.37992156298474    5.06717499526679
C         1.72491709226357    2.87605148506673    6.03357745346814
H         2.25851624670344    3.77345232292172    5.73330356089754
H         2.36823552995124    2.32057420039297    6.70978010633131
H         0.82734981891096    3.18231008702143    6.57086263689120
C         0.86094498832146    3.01494149520569    3.71112375595088
H         0.18024519464726    3.74254826662878    4.15430437008382
H         0.32628814524364    2.50510953840500    2.91381179492307
H         1.69101411481604    3.56596763148212    3.27121457007150

