57
CSD_code = HECXUL | q = 0 | S = 0 | Stoichiometry = C26H23O6PW | MND = 6
C         4.69561878071125   -0.25344823685032    5.17675039711593
C         6.75729533123848    1.17933158278233    3.91699149250046
C         6.14582244284725   -1.46535457044220    3.11983261948730
C         5.57563544324802    0.63558405597320    1.38451624286106
C         3.55707124421258   -0.76328901552506    2.51675725800013
C         4.24277545337000    3.52670509115143    2.05084665764663
H         4.26028324312350    4.57556517990637    2.35921902894675
H         5.15071186111675    3.28293978818424    1.49963341835907
C         2.96914775123955    3.25758147284691    1.22876787284111
H         3.00865188511445    2.22315625708182    0.83766335965203
C         2.82584390801841    4.23433351895739    0.09597349454232
C         2.40937089084475    5.53437459347791    0.35122121004291
H         2.15861954599205    5.81686170705759    1.36204111917067
C         2.30354574784465    6.44720669242363   -0.68195608058952
H         1.97305532209835    7.45505962120847   -0.47743856703123
C         2.62347953411788    6.07179654671154   -1.97603084590665
H         2.54274276442567    6.78542525766790   -2.78256390459784
C         3.04530085015576    4.77872753704700   -2.23389963890415
H         3.29483194715366    4.48152412020928   -3.24165342173040
C         3.14402206214249    3.86153060053255   -1.20229628266192
H         3.46998867960426    2.85122150336791   -1.40448942501998
C         1.60083687907354    0.42412880001630    4.34486330574572
H         2.25119718938434    0.71126469436381    5.16217837280310
C         0.94636164608691   -0.79321662613088    4.37580216897978
H         1.09969909897086   -1.46503783842938    5.20736861666121
C         0.10669937876255   -1.15222440393632    3.33415166109230
H        -0.39643678190253   -2.10725190039690    3.35015959460419
C        -0.08254526866019   -0.28516767400085    2.27210290288959
H        -0.73491146171643   -0.56249646144604    1.45744714705853
C         0.55920738728690    0.94112008938539    2.24822493582978
H         0.40257500808751    1.62740442090052    1.42913876309039
C         1.40760657089149    1.30374948067176    3.28394747243245
C         2.09682250173306    2.64657216378009    3.30895723228647
C         1.54785302321611    3.48601138467680    4.48616832167251
H         0.48459295714626    3.64751928244301    4.30297063540336
H         1.65116378553059    2.90825365687482    5.40796719052811
C         2.26074190457274    4.80576266786187    4.60239462701948
C         3.57786362310907    4.80760236798423    4.81986638339876
C         4.29651761081242    3.49118893449761    4.93696885021089
H         3.97808248276413    2.92917896939168    5.82426447459763
H         5.37993709136291    3.62898503949603    5.00333076185128
C         1.38469340941657    6.00857145082992    4.44267796535159
H         0.67613919508797    6.06095156911919    5.26975509910950
H         0.81017009743988    5.91436335862456    3.52155868403640
H         1.94407403442453    6.93794977963922    4.41268959962474
C         4.45684882054645    6.01332964666749    4.96756177325326
H         5.29549051075830    5.95817432874339    4.27303643929228
H         4.86840039941928    6.04435867770764    5.97693469642297
H         3.92380143078029    6.94132850799110    4.79003102268379
O         4.50810299541441   -0.56234116135724    6.26033912647502
O         7.71197983767249    1.71474254718319    4.24705576525221
O         6.74474022753067   -2.43323895700708    3.01941244491389
O         5.83113402636591    0.81078465137243    0.28410530722280
O         2.80035524421426   -1.38958028145125    1.93624172322325
O         1.88593051039675    3.39003573393102    2.12277076155815
P         3.96465591913383    2.40573543026373    3.48109207224835
W         5.12320402623659    0.22535436605271    3.28287809634605

