50
CSD_code = HECXAR | q = 0 | S = 0 | Stoichiometry = C23H20N4O2Pd | MND = 4
Pd       10.37237493525605   10.70405287742396    9.09625972416536
N        11.70337859883516   10.99858115931159   10.54292282236085
C        11.66612455467072   10.53682934999156   11.78473776621336
C        10.43799376041804    9.58017796148629   12.04376034561290
H        10.54661223339381    9.15093809611391   13.04032289114536
H         9.52238320198325   10.18611945865238   11.99416939909982
N        10.39125699942463    8.54208729084532   11.05529813802742
C        10.22096309177714    8.82057339821713    9.75205949564340
C        12.59906338425202   12.01184427093137   10.12071112020187
C        12.93191126596443   13.84761229632356    8.58246995902241
H        12.57063941439704   14.45316819972225    7.76318028395087
C        12.13402293635805   12.79328625973067    9.03260187985009
N         8.99161628449143   10.84126282395261    7.65389193216625
C         7.76613988801763   11.20534570450150    8.04595639735943
H         7.47285828707997   10.90746574765046    9.05121896403423
C         8.58198432403696   11.88355042600419    5.54665343722111
H         8.94941687401151   12.13895054190730    4.56542861181897
C         6.89967003757582   11.91145183930816    7.23233171774074
H         5.92320871716425   12.18993263670488    7.59603521938425
C         9.38886386233706   11.17890280212601    6.42280599792849
H        10.39060591972133   10.87517272633355    6.13295019620878
C         7.31353946979124   12.26371748123103    5.95483774503540
H         6.66455447054926   12.82324269863979    5.29896290163702
C        14.15666275990569   14.10117952804519    9.17266228123119
H        14.76443962444694   14.91644912989523    8.80432104631264
C        13.82506060066753   12.28207640858943   10.70520816612524
H        14.16204501873766   11.68421010845728   11.53629561935854
O        12.42362086240456   10.75343948916734   12.71954614838884
N        10.43621852506525    7.65948802793332    9.09654097908400
C        10.70158967325039    7.22278799686474   11.22591033288630
H        10.87686418119363    6.79108768699928   12.18959557908978
C        10.72920222821325    6.66337711500074    9.99095719958779
H        10.93237328511646    5.65796603893252    9.68555327628554
C        10.52689377348801    7.53921823035624    7.65898551036788
H         9.88682748574576    8.31417178364530    7.21844041553134
H        10.16212463102043    6.55302900353166    7.35911091089072
O        10.96466478368210   12.53616714376637    8.46609405256459
C        11.96038023083712    7.73047815137773    7.20874313602365
C        12.68696396812204    6.66742772523185    6.69150337822561
H        12.21859712301625    5.69982147853176    6.57748076920122
C        12.57538939285201    8.97107829968405    7.34954713269735
H        12.01795305651316    9.82773039216998    7.76308039803668
C        14.60639553852350   13.32194488632813   10.22336897575109
H        15.56564736048344   13.52219685117006   10.67781202482827
C        14.00862439772873    6.84014345448996    6.31558007407032
H        14.56349176434385    6.00661159018784    5.91147090071089
C        14.61728744282070    8.07385481228241    6.46492311295351
H        15.64983451573759    8.20557549489035    6.17951437894186
C        13.89904087427606    9.13960833799328    6.98370614792550
H        14.36632439028326   10.10461478737859    7.10818110708963

