57
CSD_code = HECYAS | q = 0 | S = 0 | Stoichiometry = C26H23O6PW | MND = 6
C         3.44806799885965    7.70872470428986   15.29496462872192
C         1.49763799457752    9.47211188677900   14.29004427132388
C         1.14443995377478    6.71328542050939   13.99124550533895
C         1.72033390724555    8.14316716737588   11.71637641636957
C         3.62143936684623    6.45985632316378   12.75075875474133
C         6.09235937664257    8.76124433533619   12.71349721430203
H         6.81217133701285    9.01222539390283   13.49399711690569
H         5.96863921826393    7.67557121915438   12.69518987809307
C         6.55776415269909    9.26638828513440   11.32636902271974
H         7.32603716436012   10.04210382086749   11.46065955130863
C         7.11361845185238    8.12586617352409   10.51298141262301
C         8.47976584410249    7.96863721192700   10.33573993711757
H         9.16294243252346    8.69009482091434   10.76151755478208
C         8.96829180868147    6.89111345893058    9.61674875407262
H        10.03361968288088    6.77342249318162    9.48375796032632
C         8.09444832831448    5.96883186568544    9.06777955865716
H         8.47710713912753    5.12963351617470    8.50604276313521
C         6.72868804705963    6.12485382974372    9.23903790206651
H         6.04357551239324    5.40765244860755    8.81227645665405
C         6.24012323349087    7.19651579691012    9.96208077313366
H         5.17634546516698    7.32877552314025   10.09979761347643
C         3.07437900701896   10.30305790664044    9.43479351083602
H         3.92364094455462    9.94370123447516    8.87533663561084
C         1.83092140463811   10.41795162004807    8.83729135967380
H         1.71003270849815   10.14465642001411    7.79961033515754
C         0.74566581995708   10.87767670195545    9.56281430207123
H        -0.22329914414320   10.96314544566037    9.09442495177837
C         0.90461934395854   11.22224914452948   10.89484074902452
H         0.06199868020021   11.57725894861831   11.46958524865507
C         2.14369977124786   11.09931812726965   11.49559421636313
H         2.26939743667799   11.37555275305877   12.53544232981738
C         3.23946591507300   10.64226700289795   10.76990014426674
C         4.58351334699410   10.54493713215755   11.44709029216599
C         5.10495837328054   11.98049180149869   11.72692962784267
H         5.36735922938343   12.41441885578768   10.75977729498178
H         4.26884429425009   12.55682083073539   12.13376658627246
C         6.27406123700990   12.06258629751714   12.66990953197745
C         6.15586942364046   11.54549518196487   13.89586677301260
C         4.88241369966805   10.83965319202440   14.27063496889479
H         4.03323720014989   11.53157439594314   14.32118634752248
H         4.96871915416398   10.35101858200707   15.24553564145785
C         7.46802158777087   12.80555510839697   12.14730529290546
H         7.64902983423673   12.54120667931882   11.10640501129416
H         8.36954709538177   12.59907961585527   12.71614551155908
H         7.27962063365431   13.87915746355127   12.18658495936630
C         7.18802978661322   11.59633023864665   14.98210424431631
H         6.80703947928871   12.18638725000647   15.81616688848222
H         8.11953014269390   12.04308105836570   14.65120738061976
H         7.39718992786707   10.59505827733059   15.35939160177122
O         3.93905719902067    7.51937985128844   16.31007655465016
O         0.84799098428196   10.28458742760846   14.76248568352690
O         0.32039721465746    5.97253096421782   14.27118061861383
O         1.19419243099221    8.05423198435545   10.70875777881959
O         4.15795112625157    5.55057112898786   12.31463734303135
O         5.45551417789506    9.80465995833779   10.62670958456016
P         4.45039544680074    9.54092071886307   13.02948629887500
W         2.58747867047381    7.98665500480089   13.51656135436988

