39
CSD_code = HECYEU | q = 0 | S = 0 | Stoichiometry = C17H13N3O5W | MND = 6
W         1.69673612138290    0.43030684660304   10.02720509225364
O        -0.81420441749137    0.02508089551003   11.86545894192586
N         1.46950168070124    5.98779119371851   11.03178542921737
C         0.08901785136640    0.13354964408961   11.15953813001996
N        -0.27687152001563    4.94830641452364   12.09833841227785
C         0.54170640910991    0.54099936027063    8.39487122951149
O        -0.13049251020055    0.58497189449667    7.47014758195842
C         3.32327798451749    0.81467080851562    8.92661158852766
N        -0.21505976280743    2.84372557562901   13.11052821922474
H         0.64340925639941    2.58444868926965   12.64042798405017
H        -0.70853545804785    2.13219281386711   13.62243699342848
O         4.26041432395304    1.02310180605159    8.30424219678020
O         3.44086962047330    0.25550316394452   12.63584079381015
C         2.82434939228395    0.32561208382254   11.67015963990632
C         1.93011496550739   -1.53186235924489    9.74504705136984
O         2.06650611932766   -2.65910632964757    9.59869279082158
C         1.41114449106553    2.50146238405966   10.36469882031896
C         1.17512679936332    3.65044531855244   10.72137818274680
C         0.80973921251532    4.86207763934206   11.30871675715696
C        -0.83029927470008    3.98007755688777   12.76205675110218
C        -2.19507558854798    4.20720247985214   13.26341698864142
C        -3.08843772834035    3.14548491627261   13.39665643514586
H        -2.79568290642836    2.14565791844575   13.11036281580911
C        -4.37483220433853    3.37384476459625   13.84937050455622
H        -5.06391158889983    2.54792185579339   13.94162292698806
C        -4.78138061884064    4.65632727719940   14.17921746194437
H        -5.78529208754876    4.82946014815486   14.53655431775850
C        -3.90049888545626    5.71724760470608   14.04171841220943
H        -4.21688401287717    6.71837982633423   14.29344380438812
C        -2.61710275396848    5.49642904798514   13.58085122723412
H        -1.92248166984952    6.31420231688842   13.47186213835780
C         2.57352385950944    6.00927016222939   10.10886509703857
H         2.75393762827471    5.00370793624014    9.73160239569137
H         3.47439470836666    6.37360729852103   10.60839322909145
H         2.34885680364974    6.67207129625817    9.26955585751084
C         1.13443728557277    7.23805042030902   11.65904535179876
H         1.05419482254140    8.02033227506193   10.90222708060574
H         1.90513574276844    7.52596795009253   12.37935522590310
H         0.18264790976441    7.12737910482419   12.17309614284788

