32
CSD_code = HECYOE | q = 0 | S = 0 | Stoichiometry = C16H8CrN2O5 | MND = 6
Cr        6.88705134620636    4.05117731005166    1.79047771116177
O         8.22554759096778    4.50805487672218    4.44434597789580
O         9.46483695199265    4.49354239250317    0.30573976845310
O         6.88703254932592    7.04678924923767    1.79035452342660
N         5.86404713126776    1.07244399035472    1.47264962623846
C         6.22286572535639   -0.27164657891762    1.58384752218628
C         5.29625987378220   -1.28490431958690    1.29444378222542
C         4.03720310183179   -0.93962645810365    0.90214545275054
C         3.69344725813789    0.43158703883653    0.79671016005770
C         4.59782893658965    1.40123977329665    1.07953817424749
C         6.88695026071300    1.91165770733307    1.79052416367213
C         7.73672442447242    4.20287490423830    3.44619054265076
C         8.50619459521488    4.19632083649804    0.87199158514791
C         6.88701381904893    5.89318853593268    1.79071313368284
H         5.60542001851650   -2.31333107205496    1.38980970031721
H         3.30143176992925   -1.69222382041165    0.67164769554317
H         2.69910925023389    0.70829375167885    0.48731730592049
H         4.37664399640618    2.45552033395879    1.01237204350948
O         5.54819203630791    4.50833714351071   -0.86317860946330
O         4.30888269242218    4.49347305923176    3.27496506341355
N         7.90986911905267    1.07247262238057    2.10844064466234
C         7.55108660483517   -0.27162697815591    1.99724902521487
C         8.47771382983056   -1.28486333876362    2.28666756314199
C         9.73677042471862   -0.93955703431734    2.67893879235889
C        10.08049849191824    0.43166459855674    2.78434760606797
C         9.17608588928825    1.40129695248153    2.50153360644790
C         6.03775242737037    4.20296615186237    0.13456997703543
C         5.26826536183053    4.19623565674877    2.70962438252069
H         8.16857372355937   -2.31329800490904    2.19132085280050
H        10.47256610015545   -1.69213730813226    2.90942032145268
H        11.07485358481775    0.70839877937820    3.09366194393653
H         9.39728111390063    2.45557924855956    2.56861996132312

