66
CSD_code = HECZIZ | q = 0 | S = 0 | Stoichiometry = C27H32MoN4O2 | MND = 8
Mo        2.85221281503326    5.18991494170615    4.91256372480820
O         3.13992441771091    3.29864563781187    2.49644564823906
N         2.43237904802659    6.29762980755582    6.79538789446375
N        -0.11826772056787    4.11778324671394    4.61205469214166
C         2.33062462295572    5.19000192724920    7.48821354022073
C         2.30362129793536    7.54277351095067    7.37928445361080
C         2.77769025490677    8.66348984401884    6.68571296886238
C         2.66261925100856    9.93205735780976    7.21471016804867
C         2.06317127442844   10.12835106484812    8.44829632361702
C         1.56662749680663    9.03506951975766    9.13700184830879
C         1.67634475350542    7.76185429346987    8.61401765744091
C         3.00295064740872    3.97837848721805    3.42214834672706
C         0.70191808259259    5.19001347598856    4.70862071235320
C        -1.41941268778087    4.51564901176215    4.45105049750325
C         0.27493730141286    2.72291091169824    4.59267791867022
C         0.02996163195420    2.13208458986163    3.20527974365947
C        -0.47140773846405    1.94217872799880    5.67273806393707
C         4.88121110213303    6.37569308144187    4.92283091281038
C         4.96158519650051    5.19003260178398    5.67054154048670
H         2.23746001027028    5.19001148465398    8.58213302645801
H         3.23553533647333    8.52677333040194    5.71714861856962
H         3.04340656853551   10.77688475000441    6.65865698707461
H         1.97474171852587   11.12100361699571    8.86312444218949
H         1.07987284950708    9.17461636739661   10.09202304604889
H         1.24926223873843    6.93638577679756    9.16514869565707
H        -2.23158206427466    3.82654569645728    4.35302324104698
H         1.34627086477801    2.70446793901371    4.80519789309325
H         0.57167906583060    2.70182272852745    2.45458198400403
H        -1.02894058304705    2.14030868911518    2.95604875922603
H         0.38330863474940    1.10547048506238    3.17973815708065
H        -0.37258058021156    2.43741129943197    6.63572128265128
H        -0.04692951362972    0.94642602704325    5.76188604019049
H        -1.52797980955916    1.84563244086604    5.43336979401857
H         4.95767887946354    7.31437554905137    5.46024830335591
H         5.37909094368883    6.39360966017253    3.95648305143076
H         5.07632861958585    5.19005569621042    6.75443496959769
O         3.13999145821738    7.08138126645089    2.49660767125488
N         2.43235101654687    4.08236289868517    6.79540588618866
N        -0.11828174808097    6.26223314446428    4.61206419515731
C         2.30360464140045    2.83722771052024    7.37931251357158
C         2.77766006380240    1.71650998874934    6.68573593279262
C         2.66257889846502    0.44794435603570    7.21473263822694
C         2.06313409491360    0.25165686837719    8.44832138374110
C         1.56659821998050    1.34494231449444    9.13702693703890
C         1.67632157388767    2.61815499701430    8.61404090872979
C         3.00277709786007    6.40148466366914    3.42214986568699
C        -1.41942268048273    5.86435146115984    4.45105652261636
C         0.27491438601019    7.65710454086603    4.59270390145152
C         0.02993546392176    8.24792681878318    3.20530470200892
C        -0.47143623334288    8.43779931911697    5.67278695929050
C         4.88123157026373    4.00433531338628    4.92286660463444
H         3.23552002802195    1.85322455781483    5.71717751180394
H         3.04338848850387   -0.39688122839374    6.65869212879710
H         1.97471060283945   -0.74099284515665    8.86315640350265
H         1.07983748940323    1.20540195433557   10.09204553541413
H         1.24922252807277    3.44362394581542    9.16515858935980
H        -2.23159924391511    6.55344573772582    4.35303440074827
H         1.34625057009362    7.67554555131670    4.80521881724901
H         0.57165643206727    7.67819927393015    2.45459959214473
H        -1.02896797398204    8.23969938047129    2.95607851243062
H         0.38327349243885    9.27454278699380    3.17977551531210
H        -0.37260946989723    7.94255042479302    6.63576319036404
H        -0.04696159164740    9.43355071331194    5.76195008499271
H        -1.52800756964310    8.53434721266831    5.43341605353014
H         4.95762799122958    3.06563408436302    5.46027891891737
H         5.37888617612016    3.98637921139084    3.95639317544075

