86
CSD_code = HECZOF | q = 0 | S = 0 | Stoichiometry = C39H40MoN4O2 | MND = 8
Mo        0.35221362188904    0.09157957446156    7.39595473371321
O         1.03525720030897   -1.80679815332681    5.08977485189775
O         2.87264092507599   -1.42152017683452    8.36285074823184
N        -0.69616013153634    1.52623742699656    8.74885897667797
N        -0.83481258211183    1.62163933299775    6.54697125407740
N         2.55037922191709    2.28355804508698    8.11761795298118
N         2.86821935959337    1.54710519209544    6.13992723815889
C        -1.36736023508275    1.94041936254619    7.70829583148713
C        -1.10637764574341    1.71648320355260   10.04790913895017
C        -0.51263208660030    0.92358654790376   11.03570570220443
C        -0.88762958606918    1.03625558173480   12.35720445238118
C        -1.85446720679916    1.95407858046657   12.73436744192827
C        -2.42486397496564    2.77122533976562   11.77273694734592
C        -2.05788826929450    2.66333224171971   10.44672215582955
C        -1.42791232889208    1.94740971451911    5.34232627040041
C        -1.25303399576553    1.08313692122222    4.25823602267163
C        -1.80756758284608    1.37894043567566    3.03065062675188
C        -2.54262112691175    2.54148185343043    2.85294092306034
C        -2.71250872419217    3.41007398962132    3.91777237566072
C        -2.16085348227740    3.12411242383071    5.15192466405806
C         0.85613360024681   -1.01440769515280    5.91143852099418
C         1.75520629488237   -1.04324245704420    8.15571624166910
C         1.99127516046515    1.50311044579764    7.16649537162616
C         3.75309906196603    2.79118382100557    7.69548839571342
C         3.95171394371670    2.32672515697238    6.44405710608212
C         2.00664507784687    2.72097288993128    9.35700857630750
C         1.16308121493596    3.83516738683850    9.35448086813804
C         0.71763079036527    4.33469409340439   10.56684973098480
C         1.11122418229393    3.77017210122138   11.77256304435163
C         1.97615251088032    2.68877124595902   11.74620022751679
C         2.44296092641400    2.15429716964104   10.55235104835213
C         0.78929286068800    4.50343735197253    8.06541464879061
C         0.64167213111842    4.35198036248167   13.06970425560422
C         3.43960945981362    1.03733101694156   10.56381630990367
C         2.69847324683050    0.99531887048850    4.84048052137169
C         1.94475033451341    1.71030566524398    3.90893014493467
C         1.78501622024204    1.18028845307644    2.63800943320448
C         2.38403035844113   -0.01664221300415    2.27615134186145
C         3.19922522732301   -0.66062433487546    3.19685378337532
C         3.37905284044258   -0.16890015174565    4.48024332073455
C         1.38874515013740    3.05910559107523    4.25211477597526
C         2.16704531422958   -0.60816008714529    0.91734323715996
C         4.29803084030107   -0.85226468581175    5.44280507427327
C         0.47814245947284   -1.85733764109155    8.79702668420085
C        -0.87799295877579   -1.32462195383095    8.49482884931605
C        -1.35856945041473   -1.49854211754816    7.20478145061675
H        -2.34101308448607    2.44919796030292    7.77094665773820
H         0.25815640402748    0.22625037880158   10.74033199964722
H        -0.42278425519397    0.40534628978553   13.10161370037634
H        -2.15267843219711    2.04059189504365   13.76856367284950
H        -3.16603175806928    3.50443880327892   12.06005210462130
H        -2.50466976974344    3.32727914296428    9.72093224955565
H        -0.67458003397737    0.18418232329418    4.40735933454417
H        -1.66674243943061    0.69701333418647    2.20487406535818
H        -2.97571776884877    2.77211134163593    1.89100779355578
H        -3.27464969154483    4.32369092001634    3.78556281137994
H        -2.27972750791945    3.82627483785538    5.96584171801751
H         4.34748965177161    3.43157528882757    8.31476017367732
H         4.75358400239720    2.48478395954066    5.75221011076118
H         0.05967927087921    5.19189074747713   10.57514617915045
H         2.30605738995725    2.25159150240829   12.67760701245660
H         1.67469233046297    4.91996552856560    7.58276415054254
H         0.08336563857456    5.31035631217698    8.24466260248504
H         0.33928318236331    3.78963394877554    7.37568913950072
H         0.73830192677113    3.62959428568703   13.87561255175842
H        -0.39861648390186    4.65936230193140   12.99600397830937
H         1.23718335461265    5.22992551082799   13.32278130945470
H         3.39806309653551    0.49906985994947   11.50719531411250
H         4.44775598592048    1.43885846181545   10.45089053397535
H         3.27205033679635    0.33822508627605    9.74952661345140
H         1.18268336671794    1.71705754936907    1.91958282929759
H         3.69994826812881   -1.57380782000792    2.91042453872376
H         0.93239456606565    3.05193845834913    5.23901642380324
H         0.64224666165395    3.36382233378162    3.52426520587217
H         2.19222350296341    3.79815662035917    4.25455426725852
H         1.49793131302474   -1.46484315901545    0.99400523742458
H         3.10616418156844   -0.95675496926795    0.49224367506598
H         1.72025024488261    0.11698273653453    0.24193025954335
H         3.81584004112664   -1.00474021244088    6.40602842503262
H         5.18898145550424   -0.24609457152419    5.60965177289186
H         4.60787859952176   -1.81694800194956    5.05159608720938
H         0.62120738719400   -2.86059295053331    8.37248954493307
H         0.67794509642929   -1.88652904808190    9.87291938545877
H        -1.52096613894948   -1.01449010141855    9.31971048091197
H        -2.37211814173856   -1.16674057656302    6.98757447190010
H        -1.04902991793708   -2.35278203122359    6.61117034583687

