52
CSD_code = HEDCOI | q = 0 | S = 0 | Stoichiometry = C19H24Cl2MoN4O2 | MND = 6
Mo        1.60620832256171    2.90061368645679    4.39859570292539
Cl        3.19171721379890    1.23305595443806    4.93055702850684
Cl       -0.51439043345608    3.93008573134869    3.78498613561804
O         0.38953338929328    1.95358852649807    5.78222985033365
O         0.91482255113738    1.48051212010006    3.09670305662269
N         2.44073646265494    3.53131700085158    2.80956385159403
N         3.23778304108709    4.54841558331750    2.38167857971831
N         2.06066208786549    4.15725666842091    5.50532870006274
N         2.23993885883280    5.14581003884926    6.32263272040099
C         2.93050035387009    5.14844207410384    1.14923161508457
C         3.91578530229969    5.81563558540836    0.42054274190105
C         3.61870728716723    6.35115142312647   -0.81733157817680
C         2.34555683067003    6.22818183924411   -1.35127705748985
C         1.36281845509560    5.57204963445333   -0.62978133311396
C         1.64606634215682    5.03649541439821    0.61272288144812
C         3.87129243400468    5.32839010392134    3.41461436316913
C        -1.17667943658106    0.53727359029712    6.85324827007832
C        -0.39823352759492    0.98010601757898    5.63643563776925
C        -0.60835856838396    0.28818559303899    4.43834167836917
C         0.05064157401992    0.57021475574300    3.24093480040434
C        -0.29375244000435   -0.25963381914890    2.02699560502334
C         3.31066459760579    5.17400904723998    7.21095791833007
C         3.51927413091147    6.25604063503685    8.06803380954203
C         4.60421931833998    6.25741100580973    8.92519928810421
C         5.49251448457138    5.19598760426507    8.94658383025588
C         5.28531283656748    4.11865895275484    8.09864806946202
C         4.20835214263068    4.10138160019790    7.23703222805764
C         1.22193316498939    6.18218522665371    6.32555786308180
H         2.23373200303848    2.96774956666759    1.97541442072773
H         4.91719073312572    5.89793297702837    0.81375097432430
H         4.39000906261022    6.86186284502423   -1.37454035907070
H         2.12140253953607    6.64594303060400   -2.32072687317336
H         0.36358862651652    5.48520632152331   -1.02932132752389
H         0.86129951113949    4.56439605291562    1.19041163232139
H         3.15117775664554    5.98757832975979    3.91369022548734
H         4.66094476265721    5.93395408186363    2.97778657609563
H         4.30018262626410    4.64157026045343    4.14849357077592
H         2.84378541318140    7.09584111905209    8.07360733625404
H         4.75448179945671    7.10004219498267    9.58430068456550
H         6.33599973184392    5.20608965991470    9.61966217404279
H         5.96700944261722    3.28165888965122    8.10963942436752
H         4.04003664761854    3.25580701094039    6.58331548488880
H         0.75333114277748    6.25869032052851    7.30823692198737
H         1.64896674075010    7.14837131029159    6.04774107050090
H         0.46602765887662    5.89631692367617    5.59076928905559
H        -1.32535720935427   -0.51799658446974    4.44201679914295
H        -0.82786538148932    1.08386940420901    7.72617634672030
H        -1.05404352557853   -0.53102117654025    7.01405732360003
H        -2.23507319094460    0.74156342145573    6.70171510597498
H         0.44140265975510   -0.09320975784894    1.24268480382771
H        -1.27457605711141    0.03800505698146    1.65844573236396
H        -0.32958027005176   -1.31574285307039    2.28050640564731

