74
CSD_code = HEDCID | q = 0 | S = 0 | Stoichiometry = C24H39F6MoNO2Si | MND = 4
Mo       -1.23680048676409   11.49076124951766   -0.10204632686858
O        -1.59932029919139   12.30718770025440   -1.62712706185178
F        -2.43917638795045   12.33724504021077   -5.06448005539832
N        -1.68216692926414    9.94098271295152    0.53203423821840
C        -2.14320172185575   12.65063145740918    1.18258550106384
H        -2.08919548502776   13.70936012077759    0.89772046851388
Si       -2.98286484299723   12.45964561604292    2.84775467343657
O         0.60017458741956   11.42310570316286    0.35565853099904
F        -0.90331235112324   11.28246050017060   -3.97888053259021
C        -1.70674026919874   12.45770000848206    4.28637792469272
H        -0.92605773368176   11.72276924995307    4.11830835481346
H        -2.18336828070293   12.22120732925468    5.23285760883436
H        -1.23000086051325   13.42764355358601    4.39669283463397
F        -2.97387829145472   10.84782356825903   -3.61329119742513
C        -4.13127631023111   13.96406300554543    3.16817928304243
H        -3.57404430745954   14.89590878609907    3.16565483922107
H        -4.90331814551253   14.04332029130279    2.40896650941729
H        -4.62715387793356   13.88497491461759    4.13026935890676
F         1.34365255361088   12.89455632521294   -1.68213014797817
C        -4.05697646528928   10.88528962246127    2.97539298954352
H        -4.97689402936072   10.98664298114186    2.40845172577308
H        -3.52688855677302   10.02159451100196    2.59045153225250
H        -4.32901853824972   10.67765884492579    4.00578613192342
F         0.25166283556020   14.13190308363117   -0.31474535460684
C        -2.12277516988381   12.91364728103350   -2.74164719966442
F         2.38074297809376   14.36402454735022   -0.49281598446011
C        -1.25693809174751   14.09607403268152   -3.20050901578190
H        -1.69831598003112   14.56976891727869   -4.07360401990072
H        -1.19283187887344   14.81975846927865   -2.39050937690030
H        -0.25444127083959   13.75113174612464   -3.44980642038966
C        -3.57093797670166   13.34875908633772   -2.47493389763098
H        -3.56661641719887   14.13860813753703   -1.72594960395752
H        -4.03554652314208   13.71407902222452   -3.38769816291497
H        -4.13820478394090   12.50216043885097   -2.08408132063881
C        -2.11312888452439   11.84733066486374   -3.85897257957994
C         1.57221377512834   12.35658626519452    0.62324131786475
C         2.97041805419922   11.73543239352484    0.46382174900704
H         3.08245086999949   11.33253521488084   -0.54167533508572
H         3.74419749935298   12.47630261377808    0.64681379805589
H         3.06765299883935   10.91991787161430    1.17545301287528
C         1.38801906714269   12.98670788094831    2.01083915087280
H         1.60927725122405   12.23628882859523    2.76550691957766
H         2.05050161468089   13.83929093215390    2.13924580935098
H         0.34688689023103   13.29607628761508    2.12506739212191
C         1.40574534055936   13.44587963255522   -0.45565046064335
C        -2.12958528199203    8.72239522966471    0.87437777557660
C        -3.09063505943513    8.05589971072907    0.07804552050995
C        -3.54404143648093    6.81066975935573    0.47372295076108
H        -4.28540287305956    6.29377026399744   -0.11546101073558
C        -3.05750587702560    6.20796302037763    1.62128955735878
H        -3.42091187455184    5.23357249221126    1.91291804974303
C        -2.10351843231035    6.84918821540039    2.39350306973233
H        -1.73069878511773    6.35981410147439    3.27987838589095
C        -1.63183673658758    8.10101942047175    2.04516525603190
C        -3.57658203302599    8.74978668305828   -1.17054555321892
H        -2.70673430392596    9.27727312434370   -1.60344927740653
C        -4.62453209729198    9.80869032499355   -0.80067631347022
H        -5.03437769747239   10.25533931066308   -1.70533285176795
H        -4.16431979233498   10.58925691776725   -0.18238549408394
H        -5.43804983573659    9.34885688082910   -0.24285207568381
C        -4.13351848287254    7.80036466255441   -2.22825650969890
H        -5.08924201877171    7.38595944436127   -1.91542172425665
H        -4.28771878133743    8.34329670262126   -3.15794508830202
H        -3.44042630876486    6.98405755821923   -2.41690198196261
C        -0.58899460154198    8.84223882789310    2.84568228336215
H        -0.80913295004175    9.91545199524063    2.73445617716969
C         0.79446860991085    8.59690170029780    2.23109254569542
H         0.82075795891977    9.00525627441395    1.21970681575300
H         1.56302097429997    9.08565875356740    2.82792625142897
H         1.01162362094583    7.53091385257083    2.19057986439404
C        -0.59449322712385    8.48532366938901    4.33019702586550
H        -0.22107033922762    7.47698844963642    4.49433451485630
H         0.04716857381974    9.17218475619709    4.87847870347893
H        -1.60051608042761    8.55931145699999    4.73539553222137

