86
CSD_code = HEDDOK | q = 1 | S = 0 | Stoichiometry = C44H34BF2O2P2Ru(1+) | MND = 7
Ru        4.40849995356926   13.93384385140130    7.44504216521317
P         3.82445884316904   15.14866709892457    5.57132283576731
P         6.64220957426910   14.40291882945193    7.14544345014032
C         2.46658570310527   16.41977019255112    7.58041358029122
C         1.68207058600941   17.42282129077999    8.19702200382648
C         1.33836142084392   18.57577950019825    7.43900823163128
C         1.76880381432179   18.67475556888648    6.09848494739374
H         1.48821474010145   19.54874771534466    5.52981116171866
C         2.51778174273638   17.68917624538864    5.51981744899684
H         2.83496672186106   17.76992893160784    4.49049588999255
C         2.88554293542935   16.55252746354698    6.26747145261431
C         1.22184984692226   17.31198683321520    9.52717957732176
H         1.47136213812417   16.42865254225447   10.09769609421666
C         0.46692221062467   18.30596628007467   10.08422713428369
H         0.11749984194751   18.21570353574909   11.10126211460573
C         0.13745577294682   19.45123130772599    9.34161340303550
H        -0.45779755884553   20.22514002988808    9.80072781804579
C         0.56175823987641   19.58292631265911    8.04863713888627
H         0.30605944419321   20.45886714289860    7.47178355382608
C         2.85421692628453   15.17389406689649    8.28801020966319
C         2.07227115286999   13.97285320997266    8.05656961049492
C         2.61689702613397   12.72599056908064    8.50481692759173
C         3.80551213104064   12.73151088912559    9.32414246807813
H         4.15734590462082   11.78573752326374    9.72520517542660
C         4.35774529334966   13.92233164862064    9.77456756370641
H         5.14298932733871   13.91728497894773   10.52136427552135
C         3.92479537460941   15.15731104498269    9.21385542171184
H         4.35102887625501   16.09258611122956    9.56517533838182
C         0.85766802269913   13.97691348439907    7.34727589307085
H         0.42705843807893   14.92248396264825    7.05153955671862
C         0.22621288806282   12.79547023249577    7.04668667393464
H        -0.70380601418121   12.80817747162576    6.50126945478335
C         0.77957752644746   11.57289822164120    7.44151611152497
H         0.27492335024331   10.65395474370645    7.18840835791495
C         1.94399742826680   11.53512088643328    8.16758070847210
H         2.35040573321283   10.59192150490692    8.50482574261986
C         2.56784151215109   14.21464494640203    4.64438917615542
C         1.42434251974766   14.81924915454375    4.12993857988145
H         1.26393204835535   15.88012715863205    4.25469667865716
C         0.48854325764613   14.05491958677950    3.45664367883938
H        -0.39615149619795   14.52603805787296    3.05559459800367
C         0.68347989756317   12.69256347553159    3.29427592279953
H        -0.05144377768866   12.10251280999539    2.76848285883638
C         1.82286926697007   12.08976914464343    3.80207752227255
H         1.98162525837565   11.03061565100609    3.66871555226981
C         2.76371133011852   12.84547175592978    4.47797917418040
H         3.66137619729386   12.38150114790787    4.86535970431980
C         4.95002342329444   15.80575687562405    4.31899634807412
C         5.38856955306087   14.93687757503398    3.32113236381352
H         5.01976180470599   13.92328374984337    3.28537235255590
C         6.30725601722773   15.37448770986089    2.38556194921847
H         6.65118231471773   14.69616513726375    1.62067121716804
C         6.78503450771782   16.67438104151033    2.43362805843705
H         7.50169060354925   17.01375876800667    1.70156578970552
C         6.34250708974411   17.54164471870417    3.41989284239879
H         6.70941690418450   18.55624514380150    3.45509687175626
C         5.43454890591283   17.11137263990615    4.36903589701957
H         5.10627635499418   17.78607145861063    5.14533886550728
C         7.26095230587944   16.03831200129299    6.69566306304339
C         8.39706112561657   16.14043583414634    5.90331905206016
H         8.83764778669300   15.24220834454291    5.49819706712095
C         8.93490139118074   17.38781326385308    5.64209106629311
H         9.81603320340032   17.47401646063112    5.02503669880135
C         8.35150294152126   18.52417089185873    6.18018616808903
H         8.78170640905500   19.49461997943027    5.98469884497569
C         7.21453588200918   18.42119266192772    6.96661690094734
H         6.75771479299430   19.30985559599874    7.37653735536360
C         6.66454194195272   17.17789833979742    7.22088402983642
H         5.75699521928229   17.08098064239747    7.80530882880338
C         7.55292647995780   14.00579459820398    8.67328883109884
C         8.15314263768433   12.75916334726132    8.81737742668089
H         8.11025718942694   12.04552413450996    8.00859452009313
C         8.82975980727905   12.45326367723188    9.98616065910809
H         9.30437942829366   11.48983012378613   10.09263531124719
C         8.90288586281607   13.38137958269078   11.01197616183894
H         9.43216767913037   13.14097964844530   11.92124233299106
C         8.30525995003492   14.62519168487878   10.86893413917093
H         8.37260968781171   15.35193121102178   11.66462949280520
C         7.62849225603038   14.93812090714834    9.70501297924318
H         7.17382732937464   15.91083843949422    9.58105139045309
O         7.17186631860406   13.45935973174825    6.03448575298449
O         5.19737453956662   12.09660849396107    6.43944782559047
B         6.49454357052634   12.16934018895518    5.67063498656765
F         7.26229642505818   11.10502063906245    6.03940956080222
F         6.22303773390992   12.16323845713899    4.33955379531066
H         5.16234125491867   11.25260218866458    6.90861026538830

