77
CSD_code = HEDDUS | q = 0 | S = 0 | Stoichiometry = C34H36B2Cl2P2Zn | MND = 4
Zn        3.69376605253110    5.03259970493751   18.79641082652291
Cl        5.54383697447848    6.33141368089661   19.32744742859866
P         6.10622248698644    2.81517977324645   18.54354567588127
C         3.84960571647082    2.76588744438124   16.64658270481807
C         3.78241025668908    3.84310090675025   15.73396172430067
C         4.36735422961008    5.11133186449856   15.99947337021740
H         4.99685286416573    5.23719274071624   16.86827461967192
C         4.23420269566472    6.16341211561255   15.14337951691098
H         4.70062100381717    7.10828088820011   15.37815681363704
C         3.50065764659736    6.02934667680371   13.94878046931661
H         3.38341753450110    6.88166627328398   13.29639866602009
C         2.97374956044084    4.82045854638254   13.61858914713670
H         2.43869517564604    4.68409268813076   12.68918343157989
C         3.11603887968250    3.69721353128174   14.47335591555439
C         2.60325129812491    2.45939472421085   14.10329263639111
H         2.07456117583364    2.35967845789399   13.16554260055953
C         2.77856637654997    1.34541823688981   14.91485361343817
C         2.31897868699061    0.06426480000115   14.51438962744484
H         1.83557516127585   -0.02237762344018   13.55150226665949
C         2.49066884928974   -1.02713645516058   15.30734750860090
H         2.14097383967748   -1.99961738391854   14.99363908622451
C         3.14640031964834   -0.89068953119598   16.54736654979639
H         3.30431344753582   -1.76658493899250   17.16043899473843
C         3.58415711934244    0.32882112964172   16.96694833076629
H         4.10566957888409    0.42354724835882   17.90364833858902
C         3.41118957114321    1.50206221129640   16.18915047890986
C         6.70860563125646    1.09435829283861   18.32883243412233
H         6.23005621644342    0.44967974423637   19.06310477850960
H         7.78683178429135    1.05833631821167   18.47362435692903
H         6.46807580243379    0.73907827559703   17.32959432715629
C         7.20006392000644    3.75372625855350   17.42027223917840
H         7.13360237098888    4.80823827710805   17.68567349647746
H         6.89092729031186    3.61410208369917   16.38613650919267
H         8.22919962724034    3.41859327098648   17.54103031028411
C         6.74542803552809    3.25751331269909   20.19168675095959
H         6.51214228337781    4.30434400918868   20.38267097735245
H         7.82584509518507    3.12268537457321   20.20449591771761
H         6.29158933913571    2.63465377075170   20.95721179425395
B         4.22078368947367    2.95837354267949   18.20090590689251
P         1.28125124182955    2.81514468402659   19.04921503113145
C         3.53787642088736    2.76584361637101   20.94623083549977
C         3.60506296318513    3.84306654109568   21.85884089206455
C         3.02012497078515    5.11129980130080   21.59331738860143
H         2.39062141299843    5.23714463408694   20.72453256561314
C         3.15329630433715    6.16339326746566   22.44938121079834
H         2.68689411785597    7.10826765018050   22.21458660401164
C         3.88684520174908    6.02934179069537   23.64397589358083
H         4.00411659911367    6.88167846468635   24.29632782223021
C         4.41373027351479    4.82045021679980   23.97419610541024
H         4.94879271843224    4.68409429665697   24.90359576118251
C         4.27141397973876    3.69718690887765   23.11945765712924
C         4.78418103381918    2.45936856838001   23.48954561190045
H         5.31285721621346    2.35966027164431   24.42730371119042
C         4.60887506976407    1.34538283310418   22.67799463798554
C         5.06846489429553    0.06423774261711   23.07847926465915
H         5.55183878745552   -0.02239224580514   24.04138219451651
C         4.89680641097985   -1.02716729131700   22.28552001343615
H         5.24649580956144   -1.99964468745053   22.59924537634002
C         4.24110736204258   -0.89072914598810   21.04548166343830
H         4.08324536183759   -1.76662389062121   20.43239345080045
C         3.80334815553051    0.32877482900331   20.62588299841930
H         3.28188442080049    0.42349669799593   19.68915583523706
C         3.97628263248266    1.50201757554744   21.40368175633695
C         0.67887613787461    1.09432121261131   19.26393183792326
H         1.15748158690107    0.44961322452830   18.52972504642753
H        -0.39933715902510    1.05828072321996   19.11906548084107
H         0.91933910714032    0.73908743198088   20.26320389910578
C         0.18739448966396    3.75366103255754   20.17249983645882
H         0.25378555405473    4.80816767454988   19.90706295747373
H         0.49654031632829    3.61408799668049   21.20664042309925
H        -0.84171844686870    3.41845568731375   20.05175270746334
C         0.64205949331882    3.25753126390297   17.40108193264984
H         0.87559681440333    4.30429256195999   17.21002561921083
H        -0.43839742733162    3.12300862225263   17.38839346767052
H         1.09565711500423    2.63450908878158   16.63554643361769
B         3.16667974249431    2.95836874885291   19.39192290088213
Cl        1.84364172960514    6.33138135964209   18.26542303435690

