86
CSD_code = HEDFIH | q = 0 | S = 0 | Stoichiometry = C42H37IrN2O2P2 | MND = 6
Ir        5.89956296942173    1.45320353006013    9.77319516277982
P         3.61480330574163    1.05094833378060    9.83703067199851
P         8.14157965980646    1.84195250221396   10.20651155384290
O         5.52318745882014    1.20756823976815   11.87958874027962
O         5.51053828968078    1.81927884982710   14.00429398169355
N         5.48464094541091    3.57785746512684   10.12293878426463
N         5.57986899836071    3.45256110583169   12.47465870601098
C         5.31890770222418    4.35704668007885    9.04887323545098
C         5.09777512757694    5.71177631978274    9.09650695266919
C         5.03378251168334    6.32526220667305   10.34558226458246
C         5.18979474102827    5.54563288410902   11.45858812238951
C         5.41573141048883    4.15634452639846   11.33018448111250
C         5.53903441820729    2.02574525941628   12.80925868611916
C         2.64292506090438    0.68874897464018    8.32964590034411
C         1.29913605139689    1.01148632511486    8.17973991110021
C         0.61997253666228    0.63372200098565    7.03506600462910
C         1.27114100456889   -0.07299495685047    6.03772847441976
C         2.60977513227553   -0.39895760994131    6.18385488788595
C         3.29325032873297   -0.01899535313735    7.32426960808797
C         3.03390678637400   -0.33954701314513   10.86924278948170
C         3.90259210137022   -1.36113549278977   11.22673628854239
C         3.45231009527642   -2.42190454209761   11.99274164370064
C         2.13021854737978   -2.47447851570559   12.39908463821992
C         1.25546438594184   -1.46395961038338   12.03306074488919
C         1.70186324195188   -0.40190747951786   11.26980695089227
C         2.74557797991851    2.46999910194039   10.56650011222625
C         2.41748619104643    3.55399080271276    9.75456908734670
C         1.90192153637178    4.70968606330250   10.30918577155400
C         1.72406898298749    4.80126433525777   11.68086139901475
C         2.05717570455616    3.73079483185117   12.49417994114284
C         2.56896741783032    2.56943947955393   11.94281083601941
C         8.94066796637789    0.84883402211384   11.51644707465758
C        10.25354733421876    1.12679961368735   11.89184637666934
C        10.86487739670016    0.37837251703635   12.87879644911086
C        10.17530390839397   -0.65360201548914   13.49723736658733
C         8.87391344349690   -0.93686386251287   13.12185921730615
C         8.25736685061007   -0.19198968277044   12.13084458910407
C         9.39114440326859    1.62529260630209    8.88831626538836
C        10.52032856936125    2.42503696356113    8.75468751932871
C        11.45555626214395    2.14495024170287    7.77358955563273
C        11.27641248122781    1.06536524117967    6.92557192854673
C        10.15196456481609    0.26583591767376    7.05464082703727
C         9.21300300454543    0.54502827485484    8.02991344163344
C         8.44674759462030    3.54409071112229   10.77064267748565
C         8.41182727991826    4.56657587491114    9.82413176120081
C         8.51142058244552    5.88616234171410   10.21961330151897
C         8.63170535624466    6.19834051460799   11.56519437266430
C         8.64941119574033    5.18725353369731   12.51120442095156
C         8.55076563860892    3.86321812728389   12.11956706969680
H         5.37392084451159    3.84910802677803    8.09793482793793
H         4.97847577057122    6.27546671503020    8.18602024952323
H         4.86195634782686    7.38756568810413   10.43587636896452
H         5.14409996953678    5.96902501576517   12.45061323866591
H         0.78006632708225    1.56835958272525    8.94737970373502
H        -0.42334559696772    0.89145309272770    6.92202846787988
H         0.73500006434504   -0.36574563718151    5.14690294601538
H         3.12061392433346   -0.94727564380013    5.40618026846414
H         4.34243430217354   -0.25018916977142    7.45246502850728
H         4.93287757258881   -1.30849953464315   10.91127030180119
H         4.13653479480420   -3.20797491591060   12.27672434313592
H         1.77926503379972   -3.29930209147979   13.00192767596515
H         0.22205839984432   -1.50188186456805   12.34669833735561
H         1.01374869491993    0.38517053976878   10.99396501249148
H         2.57541752576682    3.48281545838700    8.68609350706022
H         1.64818925316570    5.54532665680443    9.67283314796584
H         1.32988126068615    5.70862727770898   12.11476193998485
H         1.92722831122176    3.80078071803657   13.56439648061745
H         2.84017064404195    1.74124871618002   12.58260802742517
H        10.79316965110235    1.93242378067919   11.41353924037365
H        11.88157207034535    0.60109937695333   13.16951486439609
H        10.65524463162794   -1.23286056623503   14.27253828051723
H         8.33263096059956   -1.73632517656555   13.60542786429303
H         7.23750585574158   -0.39896577982337   11.84785539356424
H        10.67022209676376    3.27607179891022    9.40474885937624
H        12.32908357498442    2.77303751303176    7.67281694684155
H        12.01073338680666    0.85101948441113    6.16305309200655
H        10.00748597755955   -0.57414472791316    6.39149328620670
H         8.32006104334034   -0.05561550386135    8.13567096136856
H         8.30189340184416    4.31108488976208    8.77797016171328
H         8.48737646780599    6.67416758086274    9.48083910110888
H         8.70554821409118    7.23044725676041   11.87521522174275
H         8.73429491384007    5.42953013217357   13.56077023389439
H         8.54759381967460    3.07684968596385   12.86190319833541
H         5.54254785038355    4.00278124894004   13.32303043003116
H         6.07204803805879    1.62229793859051    8.25733089184791
H         6.19317014440715   -0.03300774672695    9.54030155025237

