44
CSD_code = HEDFAY | q = 1 | S = 0 | Stoichiometry = C17H23ClNRuS(1+) | MND = 9
Ru        0.31535117977799    2.92275136669014    2.47687756375660
S        -1.05755442026041    4.85818272666944    2.57144475209115
Cl        0.77163009279232    3.67050097362604    0.30686938647510
N        -1.38447275691645    2.10415880563610    1.39455758861593
C         3.21023266799144    4.56523505449336    3.39256923192702
H         3.91164396496005    4.39633802998642    2.56947133804085
C         0.66744776885800    1.03003714895906    3.77507267144318
C        -3.27588353457900    2.73167346674762   -0.06268923239871
H        -3.31705794959915    1.71636248242252   -0.42905884118518
C         2.31033908044425    3.35830525946697    3.49577986141887
C        -3.15294341264623    5.35173159360229    0.85019713301201
H        -3.08057653349725    6.36879192308668    1.20168046305315
C        -4.09447868106383    4.99130836384840   -0.09790466238832
H        -4.77148404982053    5.73303428318152   -0.48997673871244
C        -2.10149778948873    4.61453904166647    4.05272852527719
H        -1.50223323639412    4.87146461395674    4.92004416187560
H        -2.44111510792158    3.58456933574437    4.11128902274526
H        -2.95018625348346    5.28872117062401    3.98430140951049
C        -2.32659467738087    3.08306723372375    0.88836551353562
C         0.49755889613469    2.12903230241538    4.63903981654711
H        -0.19619380684648    2.05937797296331    5.46862472821965
C         1.67636171321956    1.10006432985611    2.77117700829146
H         1.87321997752540    0.22954900516657    2.15395152012464
C        -2.27914137671434    4.39504026743254    1.34158376274469
C        -4.15524025913942    3.68319036680049   -0.55115676861249
H        -4.88203426129784    3.40235653802870   -1.29669828425549
C         2.50011806274674    2.23144711957150    2.66308440839685
H         3.30347931061063    2.23736588456068    1.93488341725497
C        -0.10729245993112   -0.23500403617357    3.98006451942858
H        -0.24425783590044   -0.77720996582875    3.04644816418875
H        -1.07701215111616   -0.04287089361420    4.43510275940797
H         0.45144561465687   -0.88384533061996    4.65649463553747
C         2.39370741205606    5.81906827227416    3.06651285665495
H         3.06117332578930    6.66076812666868    2.90639996396385
H         1.71515242991486    6.07304577469671    3.87859558413482
H         1.81328135617410    5.66376787921270    2.15664180274146
C         1.28370467281304    3.29095862239401    4.47164454975253
H         1.17197086876342    4.10673153155850    5.17851300693807
C         4.01433057917903    4.74361860674777    4.68378055651961
H         4.71915448724981    5.56129531245117    4.56383563463726
H         4.57380668273181    3.84037757293224    4.91660607232749
H         3.36517937497986    4.97608601666184    5.52452431196034
H        -1.89208514738674    1.36249375599502    1.88942220156668
H        -0.93625381798087    1.66812209371917    0.57780462343197

