83
CSD_code = HEDGEF | q = 0 | S = 0 | Stoichiometry = C36H39N3O4Pd | MND = 4
C         5.92150382079977    8.26552799334621    4.30283621761948
H         6.58442985647773    7.95089764224694    3.48676186551073
H         6.24961302995183    7.80352031244123    5.24234532122987
H         6.02641426045498    9.34746421847884    4.41483121735536
C         4.43339729097972    7.95339575423284    3.99248994798218
Pd        4.92882594545344    5.91123558447140    3.91086098884633
N         4.55201474108129    5.75365268965272    5.90728709568112
N         5.57693900481793    3.96145812987418    3.86962856236697
N         5.28534365925845    6.08460017449562    1.91310313824959
C         3.92411914035425    8.55900178699496    2.76632717662090
C         2.79276870992948    9.36260361635380    3.08637439168335
C         2.07841140701419   10.19143157843848    2.11099894535999
O         1.59072925913627   11.31026229369607    2.67703450393943
C         0.87166459278244   12.17588352447372    1.81619777750235
H         1.47360053515901   12.42910504727986    0.94026600346850
H         0.64715189392915   13.06734211267574    2.39665243411398
H        -0.05015249215384   11.69533874004666    1.48062972365988
O         1.98223006778307    9.95969858303819    0.92811483420283
C         2.51972349977023    9.22953775073724    4.44641870666160
C         1.34280374158396    9.73937008184633    5.16730766053654
O         0.24402282191208    9.73337580134651    4.39802378609934
C        -0.93659835331032   10.23847092632950    4.99773360876196
H        -0.82800012537736   11.30550770826207    5.20470842650782
H        -1.13930846537727    9.71780777685931    5.93654870545838
H        -1.73928966679766   10.06794845536240    4.28465654964791
O         1.33590049503359   10.09154572599379    6.32351816532647
C         3.48841131173997    8.36555893515226    5.02753916833740
C         3.50544011903827    7.92517994101613    6.34647097424128
H         2.95042547116772    8.48946147212050    7.08112844727923
C         4.09394095844999    6.73566100543454    6.74519219935137
C         4.12710973205141    6.26276466360326    8.11378583910255
C         3.72998167446035    7.08982279166147    9.28449354197266
H         2.68303773826858    7.38194943336094    9.20618176533822
H         4.32716884743346    7.99996218593346    9.32535634567507
H         3.86907286866457    6.54139284950959   10.21220770934502
C         4.56827160875961    4.97654891361939    8.07334683690780
C         4.81240755423209    4.04219616484193    9.21086808053995
H         4.48162728232112    3.03594077210943    8.94368895869145
H         4.22811540486081    4.36115660810438   10.07577231602514
C         6.29565842432533    4.00989811888306    9.58789981811834
H         6.89925568303438    3.69976742420207    8.73785551344396
H         6.46508355180059    3.31588196073927   10.40816984858420
H         6.62608857913888    4.99914797971865    9.89620727296623
C         4.82660340995352    4.67035739540851    6.67828018642995
C         5.25180237801167    3.42837082020241    6.22285724088154
H         5.34565138434151    2.64675031807778    6.96096759779842
C         5.55678277012109    3.09406675939548    4.91190836370380
C         5.93929412302757    1.77356433123477    4.45120746381549
C         6.06421130101074    0.57067397811199    5.32475481822291
H         5.97879788424250   -0.33237675614516    4.71716045416787
H         5.25159657465454    0.55841282001101    6.05470961784977
C         7.40800286571559    0.55460640038322    6.05814767768065
H         8.22739811939899    0.52351675107254    5.34397818223667
H         7.47815998378512   -0.31845760328695    6.70312861323380
H         7.52368570940120    1.44820311495300    6.66706788578648
C         6.17434884193405    1.88096958003688    3.11345632444349
C         6.61896800972852    0.82470204352272    2.15835051757259
H         6.10353011158677    0.95038610709430    1.20344734947147
H         6.35397684864152   -0.15852149679137    2.55212248651071
C         8.13200509258006    0.88111232857286    1.93167774721466
H         8.43778594206307    0.11779453587811    1.21962759641567
H         8.66044639479403    0.71281884353686    2.86700791528587
H         8.42653940629264    1.85475598613778    1.54705230709634
C         5.93723388324181    3.26737084801432    2.76128693673747
C         6.09420545811345    3.81083248375992    1.49555594796186
H         6.45225624064714    3.14999854822693    0.72119340051589
C         5.82773328940303    5.12310614247261    1.12297834912110
C         6.06326811462595    5.64968940326234   -0.20849490686844
C         6.69862168787603    4.89128878001761   -1.32554835399792
H         6.44284280158257    5.36182276555103   -2.27648980685322
H         6.31148959338568    3.87011149877322   -1.34961014335026
C         8.22142525176311    4.85778316731366   -1.17287281405550
H         8.67309367807584    4.29115893778033   -1.98414174693824
H         8.50086553562510    4.39742407455793   -0.22783082336315
H         8.62274553471594    5.86849153526057   -1.18998796795163
C         5.64494330997545    6.94419349785175   -0.19386129153950
C         5.65780770546172    7.95395116887912   -1.28579647674334
H         6.09381632131178    7.54074406256733   -2.19128511570467
H         6.23752896783255    8.82744993791378   -0.98884268865557
H         4.64310359663379    8.28419832626377   -1.50650685167204
C         5.13437890236035    7.20250998041830    1.13641263087319
C         4.43449523116735    8.34491332747217    1.49196765406684
H         4.15950226451383    9.03058002726082    0.70404333227865

