75
CSD_code = HEDGEE | q = 0 | S = 0 | Stoichiometry = C26H46P2Pt | MND = 4
Pt       12.34639283507004    3.80497563947074    9.81731930030703
P        11.44937933594653    5.85000964661767    9.18208237414795
P        10.33105384892216    2.85162242178204    9.19508545009678
C        14.28739315415545    3.86394699262328   10.47257412030743
C        13.85260476638903    2.66437184828907   10.62669324510446
C        15.32679445274420    4.84140972855610   10.62831740902668
C        15.99237744610329    4.97029282713630   11.85057036648823
H        15.71425792555382    4.32739970903258   12.67402784166200
C        16.98359276158805    5.91833548554966   12.00980251328091
H        17.48951483809029    6.01007382554734   12.96093838933709
C        17.33323754749502    6.75068639828295   10.95850560062137
H        18.10997833732282    7.49044118693846   11.08743011469284
C        16.67891594748104    6.63168061092874    9.74226211549754
H        16.94750926404448    7.28063544536656    8.92009938536487
C        15.68209575394316    5.69158758683374    9.57835769976455
H        15.16125597451888    5.59972802914675    8.63407863130909
C        14.23721328902949    1.28909257117901   11.05462930329239
C        15.76589013599174    1.17263303206044   11.01081524692190
H        16.22456630954316    1.91235243492562   11.66260451576990
H        16.12901901128748    1.34147529047467    9.99921267467610
H        16.07860097634621    0.18066360809454   11.33281970837052
C        13.73973801427676    1.06928877594053   12.48910334782675
H        12.65970391863972    1.19562046674517   12.53795260702985
H        14.19741783728698    1.78903542345091   13.16463275028899
H        13.98972288592604    0.06548865134615   12.82831786544226
C        13.61216977794980    0.24271301509074   10.12812919490340
H        12.52924004813646    0.34771944051745   10.12650926692875
H        13.86683935234455   -0.76294400892222   10.45845142872662
H        13.97251253134957    0.37708244123179    9.11012293960519
C        11.38125562007883    7.02846315334799   10.62304979625062
H        10.58352961381020    7.76721852660645   10.47591504587907
C        11.08343904249471    6.18039834813838   11.85881128948284
H        11.26359900108647    6.74562681696709   12.77171351970282
H        11.74143961696208    5.30006468004088   11.85893990232371
H        10.05075302050071    5.83834386651517   11.87088587153213
C        12.72471532889889    7.73109384022960   10.79241194426381
H        12.73759969452223    8.30091083297297   11.72075191130183
H        12.92882217503059    8.41786415505958    9.97435814096107
H        13.52616483160890    6.99490031398168   10.83478802213370
C        11.99187660275818    6.92265080961733    7.75098234066687
H        13.01797438190218    7.20694377214216    8.01637825622736
C        11.18121375790294    8.18927549735097    7.50344457637527
H        11.66767129041281    8.78823631000520    6.73416861487317
H        11.10093548323381    8.79474755248601    8.40288461205818
H        10.17784960451327    7.95662755228708    7.15283172554398
C        12.05834412774545    6.04975831307630    6.50085103622306
H        12.57799979890336    6.56515809821749    5.69437655142958
H        11.05781051432898    5.79820263090533    6.15216151765943
H        12.59211287698703    5.12525540970948    6.72411550439734
C         8.99321625039653    2.08389368947516   10.25288251500194
H         8.10797767342203    1.88979209716990    9.63610382104463
C         8.63725184154734    3.07173375218803   11.35907196488167
H         7.94419587753470    2.62226459361645   12.06925637489546
H         8.17088625197302    3.96660602558686   10.95211833437279
H         9.54225855342901    3.36041526620735   11.89419111659204
C         9.49788569863556    0.78142956534801   10.86221164336176
H         8.78264702794534    0.39848537517938   11.58904363299397
H        10.44304995468197    0.95944948181038   11.37362476625387
H         9.65029279150603    0.01712966993312   10.10337793626567
C        10.56901394936523    1.59072942510423    7.84179653329212
H        10.92411753443907    0.69354612317915    8.36228750497949
C         9.33439196129537    1.22435002224882    7.02635376641548
H         9.59791339844158    0.46965375407517    6.28606109664516
H         8.93801029485985    2.08762105539435    6.49677639085852
H         8.54912317161118    0.81462582805309    7.65746466417158
C        11.71043603220275    2.08723350382789    6.95616129800172
H        12.12480941754590    1.27594066582535    6.36031661327854
H        12.50753178107492    2.50076865563639    7.59018199904442
H        11.36904836868134    2.86601232285689    6.27682268085584
C         9.63251544537191    5.57413250697245    8.86659543221980
H         9.12808652161592    5.68838425987567    9.82827698059358
H         9.23628655947256    6.33610025134997    8.19134521374747
C         9.36899143544306    4.17929368505817    8.30136791445053
H         9.70749170371203    4.15059921225175    7.26290558515733
H         8.29897584282277    3.95195020785817    8.31903863461545

