97
CSD_code = HEDHAA | q = 0 | S = 0 | Stoichiometry = C48H36F6N2OsP2S2 | MND = 6
Os       13.22647935822095    9.89221433939516    9.96384960688163
S        12.02149830154576    7.83927165435338   10.71791137958959
S        13.79849239643987   11.56156300870071    8.19482175787279
P        15.45991268428153    9.68385800785658   10.53803436367713
P        12.53924082665886   11.03504062783320   11.85692707656241
N        11.28952593656539    9.85362241095978    9.36008444902489
N        13.66905018718642    9.02786259293790    8.17988188852601
F         9.72181375379119    5.89119685291741    9.53976025210323
F         9.13840827111537    6.80014779739142   11.40136799175892
F         7.74840026866265    6.70294731261782    9.77283431937211
F        13.36990556236335   11.84228145978705    4.98071279079433
F        15.44311417878343   11.86662395744534    5.55765116162727
F        14.81199651365418   10.69947327551951    3.87465344472214
C        10.82857227298872    8.66910240006576    9.82649045910044
C         9.51894958821793    8.24773728535266    9.55639789264981
C         8.69949491554378    9.06335513121834    8.79265758803118
H         7.68872122319097    8.75728570527267    8.57197609816381
C         9.19893418294035   10.26830589210183    8.31500235393300
H         8.58822221493982   10.91995483380759    7.71326738694060
C        10.50090058819106   10.62255551765251    8.62287859595481
H        10.93053346924477   11.55319351958505    8.27179186010376
C         9.04130075382680    6.92527887454362   10.06899169090512
C        13.91354667865921   10.07878254165728    7.36208690915458
C        14.21149405723191    9.88427061748170    6.00599512728565
C        14.24076295915348    8.59152716124988    5.50816376596491
H        14.46555609542042    8.41969280530268    4.46700819725654
C        13.97188816240619    7.53039624297339    6.36319791778119
H        13.97933139589686    6.51541482976425    6.00345132270640
C        13.69063900160788    7.79575465976095    7.69207168444265
H        13.47568116319699    6.99850931401181    8.39360422972124
C        14.46058747135578   11.06484794186500    5.12036522996382
C        16.12252464171511   10.97779124331610   11.64663776426619
C        15.69427172677810   12.27537303183305   11.37082286620293
H        15.01418811554566   12.43683536456799   10.54434364806709
C        16.12371404836465   13.33848532209630   12.14097656546180
H        15.78637326739912   14.33918008791094   11.91313159342755
C        16.97938220493572   13.11413944674901   13.20726435938998
H        17.32037278856860   13.94114944246396   13.81242640284247
C        17.38658923955633   11.82475958611002   13.50292444558145
H        18.04075108990416   11.64520203856783   14.34366452436052
C        16.96017897094128   10.75693993757294   12.73180873672431
H        17.27056303015737    9.75582555271789   12.99018114569383
C        16.19600694197086    8.14365975770890   11.19262292413007
C        15.40299423087528    7.06178301749867   11.54924163066464
H        14.33049474930649    7.12283453656614   11.43444636933716
C        15.98120346275247    5.89786282250968   12.02740864361709
H        15.35440894727575    5.06223121196803   12.30133462999351
C        17.35666553292816    5.80482489000621   12.14687919797780
H        17.80869099552632    4.89890211908511   12.52298732387464
C        18.15704567923457    6.87167550092544   11.76655802632731
H        19.23206462125633    6.79487513306274   11.84194679863339
C        17.58333257703580    8.03259153667808   11.28532720425351
H        18.20820320678337    8.85615605866182   10.96628324510599
C        16.54706867240421    9.85086380784964    9.06738975307227
C        17.07195143803765   11.06613521983981    8.64364196794270
H        16.92978529359543   11.95427372018506    9.24123167483418
C        17.77254246252212   11.14352125020249    7.45276769631077
H        18.16933343048829   12.09323317264996    7.12807619698719
C        17.94458717165698   10.01653017047184    6.66750981025502
H        18.47681896792510   10.08522058684933    5.73061884816723
C        17.42695078043290    8.80100073702043    7.08477659733274
H        17.55834567598060    7.91643964590616    6.47789240637692
C        16.73415266376584    8.71733102545484    8.27729928379409
H        16.33292857528187    7.76626596243183    8.60412777503384
C        13.54471470574093   10.77171035295232   13.36019563707108
C        13.94580444354700    9.45604510662422   13.58583397144928
H        13.64770744857803    8.69140938240291   12.88018249696894
C        14.71488848095174    9.13225477099554   14.68649835453697
H        15.01610646068792    8.10779549677700   14.85041065658924
C        15.10396463409983   10.12616800483648   15.56983894024489
H        15.70558433380314    9.88000450549197   16.43230489664987
C        14.73134385167766   11.43866312894891   15.33666603458969
H        15.04778804865354   12.21768318439071   16.01483659920080
C        13.95799604163155   11.76657582548884   14.23618573200634
H        13.69366989334583   12.79803814025193   14.05848978306069
C        12.20360492159654   12.83181877469870   11.88230865173166
C        12.52220663166166   13.63944463528650   10.79951790427871
H        12.97833750566796   13.20385937149687    9.92237381143867
C        12.23819149970085   14.99455535139625   10.83010252453782
H        12.48965280033797   15.61354099986645    9.98161174102162
C        11.62959803282331   15.55088354240797   11.94141569429413
H        11.40940400357175   16.60797540451090   11.96735233113361
C        11.28765450260313   14.74593333691175   13.01788242289106
H        10.79698483675045   15.17499657090256   13.87955116110020
C        11.56569064183594   13.39312296036720   12.98854570074933
H        11.27772230021061   12.76026417177601   13.81752169633935
C        10.87657894208298   10.48241793525171   12.40846075804770
C         9.77161731728775   11.04241257457857   11.76855101926640
H         9.91645563267975   11.84633694981875   11.05790608990678
C         8.49755483130648   10.57927510432489   12.03582870083788
H         7.65054409923210   11.01651926270175   11.52658183844713
C         8.30979599947869    9.55338830599281   12.94769789707392
H         7.31588157831825    9.18319268274686   13.14921428755076
C         9.40126461007601    9.00104838204988   13.59557900549343
H         9.25939658696830    8.19843834111271   14.30301353084638
C        10.67967871131809    9.45622583789675   13.32502961282804
H        11.52517603756912    9.00854009591170   13.82557166919906

