97
CSD_code = HEDHEE | q = 0 | S = 0 | Stoichiometry = C48H36F6N2OsP2Se2 | MND = 6
Os       -1.65842669750322    3.41685832926823    5.50172950478636
Se        0.27963317481561    4.05677600075689    7.06873095688527
P        -0.68701370250617    1.89164891449491    4.05212864735414
F         0.51686496547563    5.48593432548732    9.95471766566611
F         1.23546330699140    6.73588193969284    8.35606476074486
F         0.10739249846635    7.59566360921998    9.97240148367849
N        -2.20893355295167    4.94786761121297    6.77128652811355
C        -1.09787244068478    5.23109987087072    7.48122811722446
C        -1.07892287866494    6.27553948244558    8.40912877080187
C        -2.22775951979139    7.02028140558262    8.61304934179459
H        -2.23229545998188    7.82588061459056    9.33108376742035
C        -3.36311459535758    6.70681975047106    7.87691041140314
H        -4.27807488692118    7.25958390536770    8.00611589857444
C        -3.30656250133063    5.66637063430811    6.96752610630287
H        -4.17439201921693    5.39823514767705    6.37544200929868
C         0.18521385783715    6.52412340854239    9.16777901979266
C         0.60726442781588    0.85207871812917    4.81096192306688
C         0.42629314654270   -0.51864716911523    4.97453854819261
H        -0.47124193932591   -0.99078803152609    4.60149203511469
C         1.38768736731485   -1.27693853138690    5.61762660399994
H         1.23802334661469   -2.34011677063562    5.73677787510807
C         2.53437661054925   -0.67892040306915    6.11257920770024
H         3.28730870601907   -1.27611163786065    6.60536729820598
C         2.70116465030537    0.69143465010085    5.99629808018566
H         3.57531590648229    1.17094131194139    6.41110068370337
C         1.73632931744747    1.45454907496433    5.36469243765265
H         1.84722685605553    2.53263871634371    5.33148156899182
C         0.13184674285352    2.73871559018008    2.64509437887303
C         1.49409182389364    2.96805639813982    2.50657742116435
H         2.19472525593745    2.55547455202174    3.21587738430451
C         1.96687464016615    3.71482628146388    1.43970383115540
H         3.02905782776231    3.88584943279855    1.34055776728242
C         1.09115300480091    4.24349065879383    0.50820052987140
H         1.46560439758605    4.83508653922648   -0.31394282937092
C        -0.26840067682087    4.00085756728445    0.62790407281115
H        -0.96039705289125    4.39594742540405   -0.10142197915211
C        -0.74261481384837    3.25048534065427    1.68469769769363
H        -1.80444676748546    3.05011269224709    1.76888213692485
C        -1.57303798888399    0.66829554862339    3.01718837749487
C        -0.82685307905857   -0.14885115073804    2.16791176633728
H         0.25307077633211   -0.08013085946847    2.17226885689775
C        -1.46457320574473   -1.03825712028990    1.32691520498275
H        -0.88236677515523   -1.67226530717312    0.67402007766842
C        -2.85015470594963   -1.11115930266587    1.31200138583026
H        -3.34536516280719   -1.80557185579502    0.64935943705269
C        -3.59402941122688   -0.28398759044211    2.13372788310639
H        -4.67276058504786   -0.32120354968530    2.11383194367847
C        -2.95705876289364    0.60527219883016    2.98297499478748
H        -3.53751460398747    1.26586112623011    3.61104244900929
Se       -3.59666117690881    4.05698896304755    3.93475277312082
P        -2.63018181574375    1.89158216930830    6.95100006283878
F        -3.83399353634258    5.48649358882803    1.04884311014956
F        -4.55234456444348    6.73643752415007    2.64760880983570
F        -3.42425656835612    7.59617584377444    1.03126491426452
N        -1.10805290129949    4.94784808667612    4.23207807536470
C        -2.21912648465106    5.23126263958629    3.52222568515345
C        -2.23803611842346    6.27579104868177    2.59441076707703
C        -1.08913913455137    7.02044443236555    2.39048538295992
H        -1.08456853794835    7.82607125038458    1.67248529232271
C         0.04624310871889    6.70678726609677    3.12652196992726
H         0.96125177386274    7.25947448502782    2.99731802793973
C        -0.01035976536530    5.66624613577065    4.03580769475954
H         0.85743157731762    5.39804323345756    4.62790147886298
C        -3.50216648401898    6.52459325366728    1.83582660150446
C        -3.92434958403648    0.85187322319173    6.19217435735574
C        -3.74332545308955   -0.51886985800781    6.02883243876193
H        -2.84581521944729   -0.99093343673949    6.40203733589378
C        -4.70464367731840   -1.27728781085354    5.38578611134866
H        -4.55494962542343   -2.34048427584306    5.26683955177417
C        -5.85131320927994   -0.67938096180960    4.89064833555108
H        -6.60419408757354   -1.27667455770752    4.39790706777980
C        -6.01814599873866    0.69099091350822    5.00669117325214
H        -6.89227810511213    1.17040930388179    4.59174613633651
C        -5.05337701961602    1.45423115308610    5.63824477313362
H        -5.16428469244411    2.53233014191817    5.67124236807853
C        -3.44920649727682    2.73872528113260    8.35789729122141
C        -4.81146144373232    2.96816631152447    8.49617126799817
H        -5.51199499787262    2.55561866023895    7.78675486013064
C        -5.28438911517490    3.71496694960148    9.56296432299505
H        -6.34658046092001    3.88604697824813    9.66193319571449
C        -4.40879898846725    4.24357806896504   10.49462443272614
H        -4.78335310290970    4.83520976000569   11.31669330283296
C        -3.04924322480450    4.00083995632806   10.37517389244741
H        -2.35735365850181    4.39589485604035   11.10462340574328
C        -2.57488326034637    3.25043425150042    9.31845977093306
H        -1.51304459616835    3.05002178809885    9.23444445641210
C        -1.74413587074010    0.66836877248556    7.98609191114797
C        -2.49033714543017   -0.14857374808981    8.83554721462435
H        -3.57025606888507   -0.07976772053486    8.83123617154450
C        -1.85264306987874   -1.03789020466092    9.67665614365150
H        -2.43486542260867   -1.67173951970937   10.32969213380036
C        -0.46706355497901   -1.11090738394528    9.69149666118655
H         0.02813017465075   -1.80524200662834   10.35423037534116
C         0.27682850395359   -0.28395832797021    8.86956012367689
H         1.35555828012745   -0.32127895259625    8.88937408645741
C        -0.36012115534988    0.60521283730667    8.02020179545517
H         0.22035314871898    1.26564014080182    7.39198084994699

