97
CSD_code = HEDHII | q = 0 | S = 0 | Stoichiometry = C48H36F6N2OsP2Se2 | MND = 6
Os       17.77532704239010   17.47557412458965    9.35566581118865
Se       18.38267907429983   17.58113351392650   11.86679324425322
Se       18.51123477630702   17.38166015626817    6.87855468008160
P        16.22660017900481   19.20499288131520    9.36500843983328
P        16.26026043446787   15.71890751881715    9.26870024384055
F        20.97199695659674   21.82310527551020    7.51403607083884
F        22.85441290604365   21.13065261623119    8.29090711731898
F        21.80185665736239   22.71855722064230    9.28457026338237
F        20.93974977049943   13.17109000395939   11.35028981694500
F        21.90325612906201   12.31141551864436    9.63066467799549
F        22.84712186692920   13.92016005068686   10.69730175490357
N        19.26911625839373   18.85366005170933    9.70635644724551
N        19.30963122683332   16.12458894652670    9.08190673076419
C        19.54303145440316   18.76544372690509   11.02504318687349
C        20.54228402877903   19.52463647292086   11.63086867695765
H        20.73544155147085   19.39648193413871   12.68397052111421
C        21.23427599088552   20.43314163362159   10.86373363739926
H        22.00150457123135   21.05988206918434   11.29152061805589
C        20.91143063300973   20.54616166889873    9.50685804165842
C        19.93870511535643   19.72313478187901    8.96488303124929
H        19.68447007495829   19.77938858766266    7.91260494603834
C        21.62274168284698   21.54538784485538    8.65211959215051
C        19.64817259845674   16.21782011314948    7.77864601982105
C        20.68958465259063   15.47594182439133    7.22455897126161
H        20.93343824929852   15.60760403163082    6.18246330837676
C        21.35736513836267   14.57912393945250    8.02613682764274
H        22.15558986874960   13.96552283384059    7.63784939182279
C        20.96859197019982   14.46036724820343    9.36509891224110
C        19.95597459210040   15.26680266797251    9.85676625449134
H        19.65017409749453   15.20605294978522   10.89499505162558
C        21.65252197877077   13.47461239536177   10.25673174315586
C        15.17813286432115   19.27988689632776    7.87279538777013
C        13.81509909748042   19.00377169877203    7.94202462752828
H        13.35841966202808   18.78800338755882    8.89738657008885
C        13.04469377506443   19.00134990180083    6.79354661169457
H        11.98776905724848   18.78791913266967    6.85938064971033
C        13.62239764767457   19.26807453017759    5.56364413750861
H        13.01492380061593   19.27829414194760    4.67078177735217
C        14.98574311783912   19.49806815260641    5.47938871193196
H        15.45023722217843   19.67340455315285    4.52035691946736
C        15.76225687836281   19.48555041596154    6.62371463921867
H        16.83633461177467   19.60433748207575    6.53897200212104
C        14.99606699343330   19.54642550823356   10.67717779575512
C        14.92970669204238   18.78721924923886   11.83450909960091
H        15.59548302538854   17.94549406056873   11.95980169729877
C        14.02790981718187   19.11494986775341   12.83306467857698
H        13.98667251248991   18.51648405696420   13.73066605010447
C        13.19196622322999   20.20614511097443   12.68080364906670
H        12.48739113158725   20.46263153811205   13.45816786008653
C        13.26773657158128   20.98202179048525   11.53285115485877
H        12.62599511488839   21.84356417061381   11.41895162661498
C        14.16861777165016   20.66066785005827   10.53782277152103
H        14.23802142737744   21.26982805546330    9.64624051229423
C        17.04939466345876   20.84213831484835    9.47076120310589
C        17.27581200820001   21.72081573385071    8.41990168770204
H        16.87072196937500   21.52212380526872    7.44014876557603
C        18.01395764000081   22.87525876198623    8.62632274482578
H        18.18954045412800   23.54776375351482    7.79998074458097
C        18.53514684472570   23.16281293790616    9.87508669273491
H        19.12577320991361   24.05384971078911   10.02499217386177
C        18.29438280961751   22.30136754430261   10.93459524892516
H        18.68683806510339   22.52405916019757   11.91615184716223
C        17.55524696244146   21.15321786715968   10.73448054190020
H        17.36102037951851   20.48209931656955   11.56341983776991
C        15.10289186859562   15.35733406367762    7.89677378426426
C        14.28809072562163   14.22949090895788    7.99484068409028
H        14.32284814387802   13.62102655003254    8.88892086115309
C        13.44348542899602   13.89397782475750    6.95606520447324
H        12.81122262242788   13.02184300227836    7.03784254151287
C        13.41222795070794   14.66935943216347    5.80570828714131
H        12.75169328477901   14.40181367891050    4.99415579613659
C        14.23647513503198   15.77441197941684    5.69524912231782
H        14.23005399364545   16.37283689620908    4.79668867314398
C        15.08181166831389   16.11621064815164    6.73749836733997
H        15.73897694852947   16.96895808336388    6.64563711315916
C        15.13991538332304   15.62609631143049   10.70663745448023
C        13.77807559234921   15.88174913139249   10.56897824301521
H        13.36672740557037   16.09053185477929    9.59171344095162
C        12.95117939355175   15.87300523313581   11.67743084108991
H        11.89586358275248   16.07090172277809   11.55862988009948
C        13.47049943177203   15.61516531400881   12.93495761211188
H        12.81936814851673   15.59640406552686   13.79635396039958
C        14.83114270679066   15.40521179353170   13.08754769711139
H        15.24951206411920   15.23693287899063   14.06881299670929
C        15.66375046781852   15.42914521970925   11.98355187041220
H        16.73385287681928   15.32631343570161   12.12212052362840
C        17.11564710977603   14.09638638711789    9.20492363205984
C        17.30280408972439   13.22038573425451   10.26570494719696
H        16.84416140397661   13.41061357816633   11.22327222202090
C        18.07077301265113   12.07929884875235   10.09727164412533
H        18.21527435061938   11.40899862413677   10.93137535545183
C        18.66083151281047   11.80262906808538    8.87702473752925
H        19.27417214661197   10.92238356721677    8.75752456642795
C        18.45971093151149   12.66089247602866    7.80671180836025
H        18.90609447054275   12.44628694117532    6.84662329356740
C        17.69108737271610   13.79561310923327    7.96878124779818
H        17.52782722604516   14.46408857627224    7.13107714182124

