115
CSD_code = HEDJOQ | q = 0 | S = 0 | Stoichiometry = C52H54N2OsP2S2Si2 | MND = 6
Os       -0.00080794724204    7.48248185291103    1.74224102688346
S         0.30086974113318    5.10270227336959    2.38694336150739
P        -1.68250025512704    7.07493458489293    0.22461125027378
Si       -0.94787597333429    3.05955367790409    4.73085541291011
N        -1.23942506549073    6.91770976968671    3.25368816168113
C        -0.90076377629932    5.63566321246838    3.49444259967494
C        -1.48270353464558    4.86350003431317    4.50465151991767
C        -2.45059637484858    5.49342248947822    5.26872374117105
H        -2.94059946849388    4.94832790244845    6.06137190691663
C        -2.80120859929193    6.81806123038904    5.02552347297115
H        -3.55597957915620    7.31327430176028    5.61553128736967
C        -2.16825125645376    7.49706636500036    4.00458962211484
H        -2.40631061294900    8.52811215835105    3.77175965616769
C         0.90845250595940    2.99110909239985    5.16244415987585
H         1.50657673857737    3.37346743862122    4.34208505165278
H         1.22704052108407    1.97195028898407    5.35926815405337
H         1.13450743633570    3.58490869068430    6.04413611815012
C        -1.94806647521460    2.32440100933654    6.17762372214134
H        -1.66702357919226    1.28870863239342    6.33508450006334
H        -3.01575676578014    2.34530428106956    5.98424297908983
H        -1.76623360509016    2.85513130041742    7.10663886413343
C        -1.33490023776042    2.07494940064798    3.14364501927133
H        -0.79639969382967    2.48340776975090    2.29466594086719
H        -2.39502446834236    2.09825835426953    2.90604688664142
H        -1.04456310156933    1.03418877390608    3.25119510216945
C        -1.74776811723886    5.68012137942775   -0.96483757560693
C        -0.78537698410378    4.68223121019428   -0.94370833217438
H         0.03387304186032    4.75438587530351   -0.24388201675311
C        -0.88658789783426    3.59702639100191   -1.79776249506625
H        -0.13153723635506    2.82524538127296   -1.77289463301178
C        -1.95272744487680    3.50192288699995   -2.67395755546793
H        -2.03245314770183    2.65719061783087   -3.34276414642986
C        -2.92986187088709    4.48665398557043   -2.68474795542631
H        -3.77130913336907    4.40584069093510   -3.35802417710441
C        -2.83480519292708    5.56660919287524   -1.82970734103265
H        -3.60278493783173    6.32884241986225   -1.82591359472081
C        -2.06788361093181    8.49019392074229   -0.86076466432211
C        -2.50321711984419    9.67794644949195   -0.27477109564081
H        -2.61066643615528    9.73253313900801    0.80017662022114
C        -2.74860838922654   10.79429251919786   -1.05244912765425
H        -3.10036001973930   11.70505707187180   -0.58961741365264
C        -2.52435534926531   10.74987778100530   -2.41901116841326
H        -2.71526536718005   11.62123369841579   -3.02843455645436
C        -2.03069225891676    9.59316167397982   -2.99818207863530
H        -1.82177778477218    9.56681505228456   -4.05803567403625
C        -1.79955082641529    8.46919391357795   -2.22564461296897
H        -1.40692120132105    7.57180276126791   -2.68241644198337
C        -3.28057196674030    6.65792153836985    1.03051769671907
C        -4.37976442472305    7.49454158567354    1.16461621151357
H        -4.38709631445622    8.46741831857963    0.69722920184763
C        -5.48607349509487    7.07759041728811    1.88681201669619
H        -6.33724821783827    7.73640640445539    1.98400319584890
C        -5.50510441748976    5.83096451336420    2.48618134380106
H        -6.36476521311133    5.51819474956715    3.06054261955339
C        -4.41994009223824    4.98147203404952    2.33898489586139
H        -4.43010938656776    4.00243663874452    2.79589222332811
C        -3.32082962015473    5.38935109644760    1.61123935056586
H        -2.47623148550492    4.72341040196539    1.48604693990260
S        -0.30095778138140    9.86336028185353    2.38547071376389
P         1.68103130670210    7.89156128459308    0.22541042767800
Si        0.94940242532683   11.90748978517415    4.72757107305946
N         1.23773197443584    8.04777718475623    3.25371469598129
C         0.89929070559665    9.32994025048322    3.49417925738590
C         1.48251306763099   10.10278354024503    4.50317431403790
C         2.45050251341002    9.47296261899918    5.26724037686835
H         2.94085413863392   10.01823167528401    6.05951937882889
C         2.80004439826745    8.14783907739946    5.02509159203806
H         3.55453001522426    7.65253176930867    5.61538298205373
C         2.16651884117363    7.46849770531653    4.00472504127050
H         2.40397392300534    6.43716101720197    3.77253906192285
C        -0.90627033072308   11.97773613905524    5.16176524471348
H        -1.50575954827218   11.59446830536270    4.34282160532453
H        -1.22393732311819   12.99739780057907    5.35740043826235
H        -1.13155672470712   11.38548297808420    6.04469481254352
C         1.95227790746522   12.64391707621841    6.17183714711002
H         1.67240545451800   13.68012290615550    6.32793449220925
H         3.01968129830551   12.62173149634724    5.97696072040569
H         1.77129565965227   12.11493463037295    7.10203432661135
C         1.33479278973880   12.88969395914360    3.13847466094706
H         0.79480271393791   12.48050455156106    2.29077804899631
H         2.39458134532197   12.86548734086813    2.89944147662146
H         1.04518096176448   13.93073285868908    3.24522868518073
C         1.74705728954068    9.28730739946404   -0.96296108201032
C         0.78459409016931   10.28512546465057   -0.94151252778697
H        -0.03511168253098   10.21226454649264   -0.24228354373711
C         0.88646732390185   11.37133187198912   -1.79423873953929
H         0.13140259481034   12.14308522597806   -1.76904354359545
C         1.95333527684846   11.46752670230585   -2.66944157091674
H         2.03356114666252   12.31302751473455   -3.33722296060846
C         2.93038161130567   10.48272604536748   -2.68074340759606
H         3.77232049289267   10.56431375049572   -3.35332078384653
C         2.83468596922054    9.40178284286023   -1.82699718970148
H         3.60269695642874    8.63957796654518   -1.82351018079700
C         2.06717359340621    6.47718177549914   -0.86093770971596
C         2.50166937497192    5.28887186542700   -0.27542726043185
H         2.60766230408617    5.23332709083378    0.79961465401645
C         2.74761316105698    4.17304563932493   -1.05368392085509
H         3.09858255597794    3.26182573761311   -0.59115298263364
C         2.52489183299473    4.21855035537863   -2.42045320930220
H         2.71649884766790    3.34769219964095   -3.03036623043166
C         2.03227235160241    5.37586718899495   -2.99928803241690
H         1.82474311247493    5.40312614816268   -4.05938510347892
C         1.80054229066718    6.49931656276177   -2.22615007826700
H         1.40858236106862    7.39709219478263   -2.68272007459289
C         3.27916355684373    8.30799498628409    1.03160039487359
C         4.37781769971731    7.47073609178291    1.16634021726062
H         4.38463518657760    6.49763115536561    0.69941074996375
C         5.48404950955922    7.88710729811373    1.88900175074406
H         6.33471670142516    7.22771433128635    1.98685140412554
C         5.50357949104287    9.13382501894057    2.48817292125174
H         6.36317933891005    9.44617337964528    3.06286810908362
C         4.41896520718531    9.98391156467878    2.34040815914411
H         4.42954481476164   10.96301343833769    2.79714129526526
C         3.31991098829712    9.57657740276179    1.61226727121459
H         2.47580026544479   10.24302241395917    1.48664745408753

