66
CSD_code = HEDJOP | q = 0 | S = 0 | Stoichiometry = C18H23F18O6Y | MND = 6
Y         1.80036023441477    7.34388467737041   12.21522407814118
O         1.12503927498279    9.90389409448564   11.44825055421584
O         3.41961141290529    9.16686228393389   12.52645112743551
O         3.88158504781441    7.24003324726854   10.63932822606170
O         1.35962657035573    5.87352183766843   10.93471439606818
O         3.36313109305037    6.46873859098139   13.21935608868374
O         0.92317690791567    7.90414103962441   13.99361682722254
C         0.19838806912713   10.43077580968351   10.50997921267141
C         1.84606796402950   10.95887255005527   12.06624341609530
C         2.82969051951535   10.33715605765866   13.05933539044189
C         4.33770830409618    9.41415802462797   11.46912550522472
C         4.93713874873243    8.06785678391865   11.09789358534850
C         4.37421890966159    5.94871232533847   10.29684306284861
C         0.62845953559596    5.72988485468371    9.80971725809765
C         1.12978993799799    6.77508025152113    8.77015852808747
C        -0.85403135033445    6.07740713508260   10.15876907186880
C         0.69326784659973    4.31841418580417    9.20056396649205
C         3.26492708465791    5.48993092463384   14.15173257288595
C         2.21076477092251    4.45824076088011   13.66781936179485
C         4.64134157466851    4.77379635735952   14.24095503560348
C         2.89126090643666    5.97801345153469   15.56438413948164
C        -0.31018980262249    8.07318382837352   14.53639108740844
C        -1.17444836294809    8.85926386047227   13.51777417468338
C        -0.16587772232013    8.94532084435997   15.81429597961970
C        -1.06924704767911    6.78644501968807   14.91256894970611
F         1.42462070058778    7.94387494327613    9.41175657265396
F         0.26494689796433    7.07898421242518    7.79654638026750
F         2.25643423635375    6.39711874708857    8.16938375433758
F        -1.77904303382189    5.39107172318630    9.48570425901722
F        -1.05419559622764    5.83568592074152   11.46600321173253
F        -1.13539770134755    7.37825176447122    9.96609812384516
F         2.49345756071177    3.96195475599675   12.46102761335610
F         1.99679118036962    3.42063184847758   14.48184657772488
F         1.00286955870186    5.08486652631943   13.53584183224831
F         4.68337763209020    3.80729733661850   15.17074123326011
F         5.02263909616559    4.20767282467850   13.08930957170703
F         5.60145169311068    5.64953997951084   14.55941098961259
F        -2.49285765908749    8.81894069442885   13.70861710180314
F        -0.84351419169451   10.15251706079616   13.41687842777425
F        -0.94153540085430    8.31944604882973   12.29293022785577
F         0.39812807887200    8.25881049340468   16.81133274574536
F        -1.34073909442193    9.40069433640720   16.27658527397095
F         0.60729138295677   10.02017394761842   15.61003117176690
H        -0.37768953757879    9.60411749532294   10.10824992470331
H         0.72745566768081   10.93856664291711    9.69531312798385
H        -0.47634681972603   11.14219038995654   10.99667810604048
H         2.37516807860646   11.53900107517074   11.29361316317159
H         1.16013268286009   11.63232140365045   12.59718198069853
H         2.29555469223437    9.99968851576846   13.94970058819331
H         3.59948486919051   11.06841734424266   13.34022897386068
H         5.12285904352956   10.10426193031077   11.80880579710833
H         3.82550689283940    9.83226043246221   10.59267090648405
H         5.69309363216972    8.18932671097402   10.30756161491700
H         5.39439062119922    7.61893127311322   11.98995712558978
H         3.51177249442677    5.29600489845469   10.19574997187401
H         5.01614623298692    5.55581173867334   11.08658033788585
H         4.93216968629728    5.99937673039016    9.35478638356207
H         0.11322787890112    4.26596797552999    8.28236175559337
H         0.30220866816015    3.61265681426441    9.92820068158456
H         1.73119707254578    4.06832621866630    9.00030679066830
H         2.63001886046845    5.14606093387486   16.21375910537547
H         2.05580333653065    6.66797158173552   15.46248277532105
H         3.73470303314718    6.52088703704776   15.98324750846978
H        -2.01779214483864    7.03262428460378   15.38515086861812
H        -0.46131081630315    6.20209519003790   15.59788542323798
H        -1.24503989333521    6.20231142154385   14.01249042419109

