47
CSD_code = HEDQUF | q = -1 | S = 0 | Stoichiometry = C20H12CoN6O8(1-) | MND = 6
Co        0.67924070435216    3.58550562515759   11.85295338330112
N         0.29036866451929    3.48854201063002   13.73258884730342
C        -0.51458496621585    4.29595783434773   14.46497582407558
O        -0.97478798514215    5.35626153322738   14.05576521621411
N        -0.78073519259895    3.88972022087703   15.75779924945373
H        -1.39939548457957    4.49474691349168   16.28500308680671
C        -0.30334475604712    2.75680717551730   16.41246065177441
O        -0.63724871552722    2.53633197836789   17.56454538675576
C         0.58431287423425    1.98859495217285   15.58749986318118
H         1.05736604073803    1.10379335410918   15.97748966160738
C         0.82459485705533    2.38511345611077   14.31154389982711
C         1.81204430964559    1.67587170996314   13.40349136127577
O         1.90530588784452    2.21996314650996   12.24308557586170
O         2.48730610049854    0.74313184596502   13.79496687849256
N         1.06265168699211    3.38263936847669    9.97977858047486
C         1.88351581815169    4.13241847287531    9.20500181295580
O         2.37307860158917    5.19921022584215    9.55944655248829
N         2.13138583237450    3.65728129588084    7.93220433641577
H         2.76135351074697    4.22041618533445    7.37294652835955
C         1.62028281922977    2.50741850285795    7.33515922298646
O         1.93994398769059    2.22397875246340    6.19288828261985
C         0.71892067868991    1.80294792146200    8.20107337273399
H         0.22054822963724    0.91308772487039    7.85680466926929
C         0.49666992967315    2.26685192052473    9.45743020610344
C        -0.50469180943043    1.62869866635850   10.40221497277650
O        -0.58121264972772    2.23296295077196   11.53368956344844
O        -1.20348756615087    0.69398019261093   10.05980966774535
N         1.89245699292462    4.94560456350526   12.19312627047278
N        -0.49894058209171    4.95640692457733   11.44130292905493
C         3.15632371096221    4.80347029053201   12.57664923578957
H         3.51464658151002    3.78892111157628   12.68217094330655
C         3.98889375193205    5.88114672939626   12.81309890020065
H         5.00969320603139    5.71300072621419   13.11778941102769
C         3.49163798889616    7.16517627936569   12.64565257152643
H         4.11615956048319    8.02820325706916   12.82234339918185
C         2.18135070101301    7.31690546106415   12.23438764770917
H         1.76570098959648    8.29953483421875   12.08177328533062
C         1.40372893676461    6.18664185754897   12.00813155824934
C         0.02392941866991    6.19223560991632   11.55304161784072
C        -0.72302052396071    7.32814949966479   11.26118357146768
H        -0.28001340634918    8.30622871976291   11.35456407265565
C        -2.03814636004471    7.18851633388572   10.86125301990709
H        -2.63920424039298    8.05644194518455   10.63433193237036
C        -2.57111851951357    5.91104769969749   10.77124565700725
H        -3.59721744198726    5.75344991768656   10.47900178226236
C        -1.76751938022282    4.82667996419333   11.06911730790273
H        -2.15344279246309    3.81780433816329   11.02361823242853

