51
CSD_code = HEDRIU | q = 0 | S = 0 | Stoichiometry = C19H29ClORu | MND = 8
C        -0.50358203448866    6.19514787526680   13.88856944247028
C        -1.77383634467225    6.12371384335693   13.75925526917751
C        -2.92294437479523    5.32220609484570   13.29124460992937
H        -2.63197121733146    4.27289007994647   13.22458216012423
H        -3.22632450186767    5.65707886392402   12.29994923434382
H        -3.77533484445042    5.40755798643552   13.96193843760455
C         0.80876737243791    5.47767355595925   13.78767044612406
C         1.11440823133230    4.85389695265705   15.16868037764161
H         1.22977915159787    5.65775137803289   15.90009359014612
H         0.26467309473699    4.23506127534723   15.46872057378131
C         2.38489246155462    4.01394388591727   15.09987387681146
H         3.21831581980971    4.66101484107765   14.82128214071455
H         2.59518272848369    3.58703810539075   16.08267776539456
C         2.23871414936265    2.90873946624197   14.05926721254605
H         3.15431252321715    2.31540983405113   14.01462589708426
H         1.41956430693041    2.24265589141792   14.34450983230499
C         1.94929525871912    3.52007703037463   12.69244069845558
H         1.84107690210817    2.73530202107749   11.94036005274487
H         2.77855835397775    4.16550176266201   12.40155435386660
C         0.67646597471669    4.35943436141039   12.73779803232154
H        -0.17824767033942    3.73174908244074   12.99645262197505
H         0.49372561515189    4.81832244518533   11.76503059976933
C        -3.23151761175481    8.84132044000144   13.85966645561534
C        -2.19130861062056    9.84191097413394   13.79826609973927
C        -1.75249139946176   10.10901611602559   15.12709845526623
C        -2.43047400578859    9.21136367060519   16.00154620303969
C        -3.37904658781373    8.45413291373809   15.22350489554713
C        -4.14431279705786    8.51869710731620   12.71744655645865
H        -3.57835356769887    8.28302954411778   11.81735361545197
H        -4.77312996344551    9.38477323822625   12.50198972130749
H        -4.79057159836858    7.67666845723932   12.94932578816710
C        -1.80962922225906   10.61465873009030   12.57408104257397
H        -0.76672104846812   10.92377734873244   12.62066923180239
H        -2.43143966489504   11.50877749376872   12.49086307881496
H        -1.95151301997498   10.01578061487073   11.67654372585021
C        -0.83813443470459   11.20872513821135   15.56670498601062
H         0.10161896718389   10.80660200657355   15.94923734014135
H        -1.31111759524047   11.78048079445136   16.36543061431706
H        -0.61047185253108   11.87760104192219   14.74051207601568
C        -2.33986581706460    9.23058079727952   17.49490485733175
H        -1.31970392044618    9.44044214153006   17.81205846773583
H        -2.64759663094108    8.27630574494776   17.91813439048419
H        -2.99020763768229   10.01107499361119   17.89643307307541
C        -4.45172242557583    7.59597751609791   15.81907415377766
H        -4.02567753741104    6.80786839724286   16.44043152553471
H        -5.06677365448364    7.13779340132781   15.04877765943814
H        -5.09682178842572    8.20848755496577   16.45107728178254
O         1.84545309384600    6.33121672831673   13.36506121923767
H         1.87480995819763    7.08377206824524   13.98199161324784
Cl        0.77252169401294    8.34037840831576   15.44743066042071
Ru       -1.34869227732573    7.95861998507432   14.56000798648481

