44
CSD_code = HEDSAN | q = 0 | S = 0 | Stoichiometry = C16H25ClORu | MND = 8
C         3.65804576834658    3.94523587954235    4.15026093828269
C         4.80044111202044    3.70142492304067    3.62689330083540
C         6.24344085799393    4.02788189407846    3.66187627248831
H         6.70491023393674    3.87993046560597    2.68368295149707
H         6.73109995310524    3.34698935130619    4.36732197528428
C         2.90101945427293    4.76259837900650    5.14600416903160
H         2.05874893877530    4.18278446089230    5.55647703093071
C         2.35658657219696    6.01637284411714    4.46152647794563
H         1.82550312737411    6.62486974573171    5.18815083501929
H         1.67837236023108    5.72186649307412    3.66416480005349
H         3.18069242552621    6.59347177910296    4.04895226035867
C         6.44663957918702    5.47536461702385    4.11513969934044
H         7.50584364589635    5.68420127919172    4.24940467199874
H         5.92652981664585    5.65534652883106    5.05279674851508
H         6.04884815060748    6.15951211750923    3.36895949042058
C         4.61060263547554    2.15230185947517    0.86677308548350
C         3.21073444994194    2.04858127207109    0.52545431999239
C         2.65818933816093    0.94796203248474    1.23822791361200
C         3.66531379737815    0.44039905498476    2.10887888138265
C         4.89235189374323    1.15725772161593    1.84711590871974
C         5.58971948425806    3.00373026171526    0.11820881709370
H         6.59529405686516    2.89563649656252    0.51669422056158
H         5.31017630726141    4.05647366662278    0.16106473466758
H         5.60487287828818    2.70237967948236   -0.93049127905487
C         2.52135203534640    2.81309929037986   -0.56116059038206
H         1.47026730929926    2.95719154982059   -0.31723911673289
H         2.58440066669365    2.26163288265599   -1.50210557931402
H         2.98321645891664    3.78803010440036   -0.70461071182585
C         1.28818912612832    0.38192406954594    1.04143298710707
H         1.25996969003513   -0.66365152915428    1.34130812024233
H         0.99782973114075    0.46073494700504   -0.00529228630767
H         0.55772106018159    0.93111535185587    1.64100790076598
C         3.53919110135878   -0.77772230288075    2.97014225812994
H         2.54330457880108   -0.83841352397991    3.40571600345825
H         4.27075243695134   -0.76309388239440    3.77569443006103
H         3.70913495261928   -1.67499127170660    2.37088846406969
C         6.23629402655066    0.72523459416614    2.34710475953917
H         6.22140088839626    0.56542046688211    3.42424100542867
H         7.00122026039691    1.46321407677364    2.12184700593094
H         6.51549284021373   -0.21618648863013    1.87016956713656
Cl        1.18382225857521    2.79051417149266    3.26447409970114
O         3.76317212343321    5.17273668102044    6.19944275305525
H         4.07503551730361    4.39003743610692    6.66610073813833
Ru        3.40995610016806    2.55300057357000    2.65389996733890

