57
CSD_code = HEDSOB | q = 0 | S = 0 | Stoichiometry = C19H28ClF6OPRu | MND = 9
C         3.92577090058123    4.96604679647114    5.75733318248001
C         4.07792685513777    6.21656532965054    5.70921484648938
C         4.77278416257669    7.39232363557607    5.15980245171167
H         4.44056185618595    7.55918329357729    4.13452116037564
H         5.84485095723748    7.19479651846052    5.14289125357670
H         4.58156485487256    8.29065303141518    5.74334890044244
C         4.37389652128800    3.63233930819381    5.27958737837344
C         4.00758334570358    3.52535114744894    3.76864210454768
C         5.91213835225566    3.57875711335119    5.41277138310001
C         1.10922189723871    6.10477755735117    3.91857542778661
H         2.11203659478630    6.25020693234256    3.51872652792941
H         0.38206376792044    6.62541549786816    3.29587982865769
H         0.88858405200676    5.03753900803489    3.93179796713335
C         1.11534917950319    8.54241844118710    5.35796342410324
H         0.93219231362419    9.06463361500482    6.29397212049418
H         0.36736631875621    8.84255942889848    4.62564307614328
H         2.10538624726148    8.80609696879490    4.99482889789692
C        -0.75309137982269    6.51743247020847    5.98472467331583
H        -0.96289888036798    5.45285811678451    6.07751146632773
H        -1.34089271527095    6.93820573242944    5.16913928897812
H        -1.01209910445389    7.01592587569053    6.91643173417591
C         3.96962848234835    6.33106212763058    8.71312908525828
C         2.90707282497402    7.29673692451801    8.67106726964506
C         1.69008014060532    6.61918604219213    9.03982200415740
C         2.01226611390030    5.25055289115167    9.28310369762004
C         3.41172301497113    5.06251612909725    9.05085598582830
C         5.43162374363370    6.63954084087830    8.64061893934459
H         5.98100298167161    5.84429169225818    8.14199586796844
H         5.82383520277478    6.73568062334483    9.65520238548405
H         5.61611646136261    7.57358596561315    8.11574229885645
C         3.09790226389512    8.78341746402597    8.65043966027102
H         3.87121542128002    9.07715666296169    7.94357422058725
H         3.40268449060203    9.12384647487243    9.64250399653723
H         2.17719921929871    9.29756942642297    8.38550918363371
C         0.40878098668589    7.29165685649386    9.43396566103557
H         0.22548182269843    8.18305207245047    8.83677073030645
H         0.46986839239763    7.59312794175392   10.48209607418839
H        -0.43945219812154    6.61887048757609    9.32550595058016
C         1.09752711153179    4.21387818293103    9.85001577835761
H         0.05364203204895    4.46890001533784    9.68124827556671
H         1.26833367624799    4.13565257220569   10.92572836947240
H         1.28661369294585    3.23981868798994    9.40249562510221
C         4.17148661489915    3.81621610537858    9.38311119921635
H         3.62836105397953    2.93021082605057    9.05947891874080
H         4.31521124954983    3.75149116629155   10.46387294362923
H         5.14724088519330    3.81198418300609    8.90524534301714
Cl        1.22712821775757    3.81594766892907    6.56507182194022
F         2.70333772829843    3.29325244204618    3.61396313269747
F         4.27169621023101    4.65996910919805    3.09728106093820
F         4.65602365338308    2.54773744863267    3.13391534811845
F         6.51297161511141    4.49884206044903    4.64290251591761
F         6.43745426956125    2.40030890774640    5.09656978749915
F         6.29081180945881    3.84564222305995    6.66925323116363
O         3.87074115925638    2.54237154123825    5.96912292840874
H         2.92100962880739    2.72656206579233    6.19748607618315
P         1.03102712385575    6.73097139988735    5.63474484833619
Ru        2.49625680588313    5.77550695184961    7.12598269035330

