47
CSD_code = HEDTOA | q = 0 | S = 0 | Stoichiometry = C17H24IN4Rh | MND = 6
I        16.17804867261168   12.12408233354575    1.64221639551700
Rh       15.19270317139081    9.71871353793873    1.11163405662815
N        15.37860689711746    9.68818731982069    4.09603692241478
N        14.67584723874280    9.78167178362520    5.24009633616670
N        13.33810152009279    9.72499877997526    3.51802643000433
N        12.16280781757439    9.55737245611405    2.84306451320916
C        14.60743121593771    9.65986204712433    3.00442034468698
C        13.43918965173803    9.81035929711252    4.87932775122837
H        12.60312924688306    9.88928234202799    5.54162038096558
C        16.81166928031421    9.63461694162369    4.14427209430503
H        17.18502970069557    9.34420479825778    3.15959783180058
H        17.11820010285943    8.91060966880021    4.89848882962878
H        17.21242670109616   10.61561363868568    4.40411588182185
C        11.63146678346218   10.39824205053563    1.89313480954305
C        10.44978487207812    9.84549789564482    1.48877220900705
H         9.78651501150897   10.25524935701226    0.75375968886989
C        10.25988302300148    8.64311198083505    2.20481008373147
H         9.42851128614715    7.97312972154787    2.11102640734927
C        11.32903389729606    8.47509730084949    3.03710967381041
C        12.35297191877281   11.60643188456243    1.43096979967892
H        11.71996236953595   12.18311982924820    0.76326850667518
H        13.26004242571024   11.30902122040887    0.88082165233907
H        12.65770345748255   12.24045512554174    2.26415729327363
C        11.66210873521806    7.37691931039686    3.98396591645026
H        11.48334117475020    7.66476623507202    5.02155471104624
H        12.70805829080051    7.07903802885284    3.89070685481423
H        11.03814727067257    6.51508670433371    3.76288061849813
C        16.39913154663049    9.52096057636265   -0.70976161292356
H        17.24348989737600   10.19995178530391   -0.59750166287827
C        15.17193038303397   10.05983680132827   -1.02748753826900
H        15.11384632545213   11.13836742283975   -1.18451459774601
C        14.02301683429576    9.29923315730953   -1.64753727097718
H        14.23642908507293    9.13387285871539   -2.70952927299987
H        13.12859005444206    9.92601305654284   -1.59322143855471
C        13.73191489054927    7.95775775088632   -0.94936960291325
H        12.66889791439127    7.73193638234798   -1.05678662505147
H        14.28398213735106    7.14697516673015   -1.42816093318103
C        14.07472047926240    7.99016305950361    0.52441326274278
H        13.20900785189984    7.85718999227225    1.17121208728689
C        15.31619495467418    7.60389781190317    1.03949634331536
H        15.32887070171751    7.17198155666632    2.04388523344939
C        16.49800247428320    7.16239402915398    0.20730822923072
H        16.32919233026853    6.13595855646062   -0.13846093166270
H        17.37958763564404    7.14008393835275    0.85516784526438
C        16.78115820331333    8.08572724439804   -0.99124095224311
H        17.84726241404951    8.04237913692846   -1.22391046275994
H        16.24435215279640    7.73967812652884   -1.87585609257185

