47
CSD_code = HEDVER | q = 1 | S = 0 | Stoichiometry = C20H20Cl2CoN4(1+) | MND = 6
Co        4.58451760908427    1.87966761626951    3.44909234670275
Cl        5.47147169775294    0.79663486461035    5.17510741942199
Cl        3.69929730162579    2.96641746373874    1.72462863334442
N         6.31389057765678    1.83880531665917    2.54043084227085
N         2.85493832520764    1.91365512656232    4.35724552701130
N         5.05804401970732    3.58484380073950    4.27707290320139
N         4.11059625959445    0.17477069150521    2.61783245198493
C         6.77239011442465    2.90310979076631    1.87556601400339
C         7.99052434809636    2.91391954556936    1.22001456923502
C         8.78424506106845    1.77905703614977    1.24682640329818
C         8.31141404463005    0.67460587014800    1.93626528482496
C         7.08029817805784    0.74458597149580    2.56314671576781
C         2.76478564379548    2.16307978553118    5.66672538061148
C         1.56209102802650    2.17242232645847    6.35016049360650
C         0.38858017355934    1.91757163859058    5.65979070299584
C         0.47881644125549    1.66546096874150    4.30074832007285
C         1.72133595554523    1.67174164187746    3.69273648760161
C         4.21576012465925    4.62180506339497    4.25613244618653
C         4.51895440384943    5.84939930523615    4.81716703946630
C         5.74532775352794    6.02702073048286    5.43615282436852
C         6.61819949891036    4.95183645311850    5.46364740503041
C         6.23976119071147    3.75806819532947    4.87595539631135
C         3.61565720866557   -0.83363087026275    3.34126048523989
C         3.26154444391888   -2.05226156653104    2.79075073052103
C         3.41744155518323   -2.25120090978898    1.42882653710960
C         3.93066840460336   -1.20735854773758    0.67676869257025
C         4.26409797777274   -0.02090708097230    1.30512331584663
H         6.13901024800894    3.77727788579096    1.84023211390085
H         8.30227302376866    3.80360276611227    0.69733543169804
H         9.73984162854595    1.75604643711688    0.74699731849841
H         8.88445892204693   -0.23646158635655    1.99553278905251
H         6.71550604842852   -0.10547907436107    3.12068401527279
H         3.68531923091553    2.33977773583737    6.20325293487405
H         1.55645272305478    2.37478419805197    7.40890473111065
H        -0.56488185207697    1.91626897248345    6.16420149992941
H        -0.39935065942584    1.46594891036008    3.70834023139990
H         1.79673586770318    1.49774628244543    2.62939664295198
H         3.26988681527440    4.48322351675500    3.75354510115762
H         3.79818538582056    6.64901035749627    4.76190758416224
H         6.01178154395207    6.97206561134421    5.88272687738259
H         7.58478079515629    5.02679029294895    5.93486279963558
H         6.90693417785937    2.90945843292214    4.91273144460788
H         3.51677038951795   -0.67914062447820    4.40566293025158
H         2.87162587351138   -2.82818279832788    3.42936283916825
H         3.14808404830128   -3.18892642120300    0.96879215993463
H         4.07282764539976   -1.30048891008558   -0.38767185581817
H         4.64490880335090    0.80405778746299    0.72122704222131

