59
CSD_code = HEDVOB | q = 0 | S = 0 | Stoichiometry = C21H30CrO5P2 | MND = 6
Cr        5.32416488959549    3.53688204275197    5.82792739134616
P         5.12355106925711    2.28382763630870    7.95663651732047
P         3.34957414355165    1.41234941508307    8.90597058052396
O         5.51790444904071    6.32438678372094    6.93593691663828
O         5.16891620391518    1.19220196715672    3.95937868409872
O         8.30691292112126    3.21698246003379    5.67080379252612
O         2.54207521124394    4.27988802433930    4.99302763542041
O         5.80705850177014    4.95472079685901    3.24145327225348
C         5.97952375054264    2.96592323441473    9.48709089953037
C         5.13088910594064    4.07950594039900   10.09599252067481
C         5.83781789194407    4.65515171375956   11.32271695412849
C         6.03582029709801    3.54931783821322   12.35803035642274
C         6.89310057759460    2.43857415392565   11.75413507472993
C         8.25272023969158    3.00360993383393   11.34675808267888
C         8.04828667562705    4.10521204219733   10.30857309201987
C         7.34143042662486    3.53043005295687    9.07978638855151
C         7.19451416369990    5.22203099427395   10.90700172671929
C         6.19383364517199    1.86042164628690   10.52326376852367
C         3.34435212330048   -0.32362197871221    8.16937310116230
C         3.60094101653631   -0.41957498569057    6.67111052677604
C         4.32346639194805   -1.19376762791768    8.95343665220465
C         2.05941889830787    2.26738515383205    7.83888395144460
C         1.99214917893045    3.72992229931842    8.26768811142225
C         0.69078099408712    1.61164824878516    7.99181468042136
C         5.44655845885612    5.21548191776723    6.63602711692933
C         5.20176992460890    2.00005725860190    4.77751005487814
C         7.17560710190900    3.29283809112532    5.86088534012744
C         3.53480743687189    3.92003972448872    5.45163735720222
C         5.61939134763412    4.41414061022553    4.24187065930924
H         4.15504519355179    3.67702582748071   10.38668011051033
H         4.97209023077695    4.87120399872299    9.35782342459714
H         5.22360540299518    5.45405720148901   11.75223391764907
H         5.06692887651290    3.14719571993987   12.66227930542512
H         6.52532973863222    3.95421028476373   13.24605115998014
H         7.03388950193287    1.64178259359054   12.49302080168101
H         8.87764012419945    2.21018691938757   10.93049772052194
H         8.76518581992621    3.40807859555757   12.22196559087081
H         9.02033768898665    4.50927063348832   10.00595079713613
H         7.21209369397359    4.32013932335654    8.33328232350038
H         7.95341625464434    2.74010695646059    8.63318158115673
H         7.69969705073825    5.65196954022632   11.77438527133151
H         7.05511929472665    6.01744018066202   10.17178033667589
H         6.80986880008301    1.06380766369976   10.09595633075568
H         5.23248408464511    1.42811977143508   10.81581782986811
H         2.33303644994584   -0.69434644792398    8.38038052338156
H         3.51535188676275   -1.45822606746998    6.35299005275717
H         2.88362968050369    0.16402402401488    6.09878968753475
H         4.60539531290132   -0.07597738205528    6.42402093320983
H         4.22630066069322   -2.23539391462280    8.65263179324793
H         5.35238168021198   -0.88632708059331    8.77312059278721
H         4.12669839921797   -1.12486890159495   10.02199748413969
H         2.37648309719794    2.22173248191016    6.78852532601539
H         1.27322815365426    4.27008043023005    7.65406334122467
H         1.68099999018165    3.80860560816899    9.30844479073960
H         2.96487889718049    4.21188107302121    8.15328099353119
H        -0.05850958591229    2.19707201557453    7.46160529156443
H         0.67886065271347    0.60420216948889    7.58310386467731
H         0.40533741828085    1.56408352606203    9.04178818932612
H         5.88565851371878    1.10909786719036    7.94912942821550

