78
CSD_code = HEDXIA | q = 0 | S = 0 | Stoichiometry = C38H32BO4P2Rh | MND = 8
Rh        3.17158246292782    7.06623929458750    2.69338798772388
B         0.28538598941727    4.17590203543644    2.68755796980022
O         1.78915783260912    3.89360828903931    2.75971281263601
O         0.22644803129685    5.32803199776780    1.68532348049710
C         2.40898944422649    4.82388893304177    2.07403406455197
C         1.45684046534973    5.69398935274548    1.41727240441760
C         1.89119641591756    6.69192494651881    0.55121362713811
H         1.18689877156645    7.27954879818798   -0.01970971172554
C         3.28897068118663    6.88179721083217    0.43053642191184
H         3.65378789550137    7.63035752415866   -0.26559179690787
C         4.21614868974783    5.96620847356824    0.98602907633720
H         5.26305517241410    6.04399988957974    0.71405265750195
C         3.77914096674136    4.89779853502612    1.78952126938490
H         4.45184353096584    4.13413816520286    2.15378658678897
O        -0.22893105504085    4.58779457579415    4.00305849310443
O        -0.48950715850403    3.02707724033168    2.26672501467474
C        -1.23752705462249    3.73002328312579    4.28691476255669
C        -1.39149481902309    2.79740795463755    3.24846483344293
C        -2.35772916807954    1.81871388810032    3.31366072938175
H        -2.47590865590533    1.10305174287306    2.51579370500511
C        -3.17112480515634    1.78918860626530    4.44339016410596
H        -3.93773117897731    1.03170268701721    4.51816900346516
C        -3.01568509987772    2.70632067633525    5.46576258716610
H        -3.66128771957110    2.65753016766259    6.33072059934210
C        -2.03896870422221    3.69707291126855    5.40476050227708
H        -1.91039641658753    4.41619681203561    6.19878694473583
P         4.20946741561957    8.97648107752494    3.12412692631684
C         5.87306984683189    9.23392162241208    2.43479343812649
C         6.21282749756880   10.26006393535762    1.56205627662105
H         5.48091392610956   11.00954183029484    1.29744169268246
C         7.48938415839268   10.31653143564716    1.02816545366483
H         7.75241272681931   11.11852539354552    0.35390046439175
C         8.42511760190119    9.34790726681010    1.34902481794664
H         9.41895248371699    9.39767800157126    0.92983377475337
C         8.08089795100494    8.30392370455624    2.19482569970459
H         8.80461792694903    7.53708529571463    2.42907974686824
C         6.80780670004217    8.24163955722761    2.72559146153913
H         6.51147391860396    7.41338052182335    3.35927927284690
C         3.30216437042635   10.51543689706846    2.77462464389945
C         3.78191549516208   11.77454090289342    3.12334120898881
H         4.75174024415782   11.87408585467107    3.59199856388434
C         3.01959699679169   12.89808064396932    2.86057716184306
H         3.39296743874397   13.87567780596708    3.12877607587789
C         1.77811826327698   12.77334178054553    2.25599729977096
H         1.18718344868840   13.65481089283711    2.05634267104083
C         1.29537058622204   11.52181390887849    1.91010878543150
H         0.32698105813817   11.42567796191790    1.44232454969989
C         2.05720928562820   10.39696191407353    2.16862991110349
H         1.70122905165294    9.40360488882319    1.91121978391670
C         4.48875494577358    9.12694459536283    4.95306310659522
H         5.33189708869427    8.47886142882241    5.20475743669073
H         4.74802576642058   10.15466786218534    5.22277387957033
C         3.21609552043597    8.66769415093029    5.65153657010159
H         2.43586388547446    9.42524689783892    5.52069400322761
H         3.36622554821902    8.51030908966279    6.72268004748815
P         2.56087129528902    7.12149165994635    4.83671929277381
C         3.15526626608277    5.74727096398157    5.86545305974222
C         2.39677322945849    4.57803033770806    5.88383288318675
H         1.46135171478507    4.54134338533801    5.34406166669303
C         2.84558672897014    3.47530621661128    6.58669252273688
H         2.25183376210656    2.57362922056630    6.59892265978802
C         4.05229206551872    3.52549020387623    7.26652312456065
H         4.40169288487075    2.66340704121887    7.81574521349453
C         4.81625209059385    4.68094468937836    7.23682947015185
H         5.76054970361270    4.71914108592557    7.76131235709815
C         4.37616809521544    5.78709920806695    6.53234803534620
H         4.98267697757259    6.68143195610090    6.50739762438420
C         0.79643244398391    7.21865974652228    5.24236899433177
C        -0.09176703894373    7.52757648081281    4.22072253169190
H         0.29106990792081    7.68404312591446    3.21875867162900
C        -1.44752255783596    7.59962095526548    4.47895743829594
H        -2.14001703402333    7.81517521259798    3.67922885681363
C        -1.91670869971803    7.37060620807266    5.76107401649664
H        -2.97730703541957    7.40876660266741    5.96239425426824
C        -1.03074186678389    7.07638795358653    6.78622665331740
H        -1.40134380449645    6.89517613267908    7.78531800347185
C         0.32514664090024    6.99671507823818    6.53158441268491
H         1.01830856856107    6.74533542485283    7.32322934317201

