95
CSD_code = HEDYAT | q = 1 | S = 0 | Stoichiometry = C49H40CuN2OP2(1+) | MND = 4
Cu        7.18007150013176    5.41609331782650   18.60995061421718
P         5.18086455292266    4.50672445037746   19.26228208737958
P         6.87193773526709    7.20841875809643   17.25467242986299
O         4.91565129501104    7.23741416025509   19.11676993816389
N         8.57833896207045    5.98948969222708   20.02023030247732
N         8.50704458962938    3.89716415254889   18.39562264023525
C         3.19372346326256    7.25120414553130   22.33574085868102
H         2.74718219379595    7.91233836178557   23.05974125240561
C         8.23060584131539    7.77242680512446   16.18551375626621
C         4.30986351934804    6.85880012117658   20.28227376356378
C         7.00939401583380    9.96963421318241   18.05109675815182
H         7.81035454936942   10.13865625821900   17.34715282051618
C         6.41406780590798    8.72090202334341   18.14320561082933
C         4.91973059285102    9.53029363221090   19.89862641095123
C         2.45450254697645    9.47633852354857   19.95629596183171
H         2.40345719753161   10.51498722254575   19.63781013580177
H         1.57048381865966    9.24595369163430   20.54635655172470
H         2.45319586523872    8.84337942592198   19.07028116451546
C         3.93124070134916    4.28716918265043   17.95987973116538
C         5.26560958725230    2.86483892013016   20.04434638260435
C         4.16847661157184    3.28576082546323   17.01965843677622
H         5.04486295411210    2.65865538103333   17.12421522864557
C         4.44102365898965    7.87382921204145   15.93459958978649
H         4.37727507973635    8.75560961832156   16.55676793327870
C        10.90565574397461    6.80660322158075   21.25790992949637
H        11.81721089109418    7.12974417828466   21.73644601528884
C         9.51951255092591    7.37397091315830   16.52412396563297
H         9.66290117488999    6.73676616418177   17.38879187022954
C         9.47530409564196    3.91164553861523   19.32188640567600
C         4.27875546570262    1.89157203675292   19.93156976282951
H         3.38451817659794    2.09136639616822   19.35859130569397
C        10.22621483983600    2.77324684818282   19.60608955875322
H        10.98402571051161    2.79520410610997   20.37249035830697
C         5.51114653681798    6.99851756469608   16.06735329956593
C         3.74041234934018    4.99604894017340   21.68882938290513
H         3.73849863612680    3.93541050967529   21.89029316677643
C         5.59012489361017    0.41114555277784   21.29637397271310
H         5.71499688556579   -0.54599116493252   21.77921564313542
C         5.53274100755653   10.77294696203207   19.77941285422456
H         5.20657299626381   11.59573187663953   20.39370757932908
C         3.54499967888313    6.49984833602625   14.18022204377959
H         2.78087054491398    6.31151145036685   13.44172348384607
C         3.72737254482695    9.24137648955121   20.79555126413650
C        10.59639626437149    7.78453235419471   15.75971711851212
H        11.59726562012757    7.47643307606366   16.02363357795155
C         8.02216164832495    8.57314498258867   15.06669021789569
H         7.01807884194070    8.87198198882236   14.79902072230529
C         6.41038367450728    2.60314635265736   20.79284186796980
H         7.16617053972566    3.37454014873532   20.88205430735023
C         3.18389749074967    5.88868982673155   22.58740401131556
H         2.73357567165887    5.52098575214042   23.49632271855106
C         4.61044514132939    5.62326817713656   14.31274328087001
H         4.67651713758339    4.75232354364922   13.67831103208303
C         9.78159755875275    7.62270587214937   21.25517040227142
H         9.79103518496835    8.58700721835947   21.73604390486700
C         8.64124930231997    7.16930590559550   20.61650997911438
H         7.74085526599046    7.76824918710153   20.58059336991067
C         3.75725388770300    7.76945034901253   21.17541834434810
C         6.56164953248050   10.98726807663154   18.87595654737048
H         7.01380503226878   11.96479751965944   18.81109972115499
C         8.26203923542302    2.77960192631396   17.72849232921141
H         7.47881308776018    2.83809563369335   16.98496810739934
C         3.46032176888126    7.61800372474424   14.99216755445057
H         2.62995127512415    8.30033036010391   14.88605220560441
C         6.57254449796844    1.38118122709268   21.41752974146210
H         7.46214320286491    1.18264966415934   21.99696968640533
C         1.93192459706019    4.89523287513257   16.77990607292084
H         1.05928920600222    5.52396708287701   16.68507625377133
C         5.39018509816924    8.51725313433577   19.07250255183059
C         5.58522579010997    5.86670339988923   15.25955481980395
H         6.42213048084730    5.18967832302474   15.38225878662814
C        10.38688724121247    8.58808456857112   14.65058225956438
H        11.22566866223001    8.90724064814373   14.05097593059332
C         3.28066757338842    3.07879236164755   15.98282121005910
H         3.45939546524085    2.28899079161434   15.26839391254578
C         4.31071301947340    5.48252651353735   20.52196528828704
C         3.69791617591085   10.15123724205079   22.02400522471491
H         4.58324744113838   10.00163513798468   22.63809265819242
H         2.81511534104600    9.95245607977588   22.62394179471407
H         3.64779693435402   11.19365724089025   21.72429832933028
C        10.84320033299841    5.57344968069254   20.63353778835575
H        11.70837636803868    4.93128187678237   20.60062168155238
C         4.44558482635444    0.66966432104857   20.55896417549825
H         3.67773603681953   -0.08447469734729   20.47355092126008
C         9.10224633023196    8.97875645177395   14.30458893694979
H         8.94343623400957    9.60128135007730   13.43690363700107
C         2.81212597115500    5.09954088428931   17.82774777623745
H         2.61830284895197    5.87980817104947   18.54865788966999
C         9.96260085166209    1.60644298286095   18.91121065996714
H        10.52596538349330    0.70955930708764   19.11697691681358
C         9.65161743317990    5.18858717186087   20.02210880496660
C         2.15966802524141    3.88498399565751   15.86154256367528
H         1.46411911358407    3.72376357704983   15.05233269113148
C         8.96209504797163    1.60753620504545   17.94788699964322
H         8.73421794607950    0.71992244002028   17.38091049379783

