58
CSD_code = HEDZIA | q = 0 | S = 0 | Stoichiometry = C17H33O5P2Re | MND = 6
H         5.70023368017964    0.52820327293239    0.36415115980258
Re        4.17076057235078    0.13503756597377    0.85716007532897
P         3.63893108747374   -0.25834504963628   -1.52954238277934
P         3.60740916287705    2.53982913572907    0.69617923352047
O         3.22485638536155    1.01366595948893   -2.45944361936348
O         2.46512236514602    3.01018452158726   -0.36669411875142
C         2.02542931761596    1.75674672270715   -2.39739043292941
H         1.21365984874419    1.20918961050870   -2.89207509359122
H         2.22546043613874    2.67578961361039   -2.95908000399353
C         1.57059290188575    2.11816803786331   -0.98632854476522
H         0.59723765693358    2.61789623587210   -1.04510042650837
H         1.46096631791710    1.19670915989220   -0.40080624402249
C         2.33173407331890   -0.34377985321974    1.31181226577637
O         1.28014968320700   -0.71832121003325    1.58979012118392
C         4.70463466706237    0.48437881158954    2.69864324841240
O         5.02561433649415    0.69867348663590    3.78344993293247
C         4.73512609502038   -1.71339672165686    1.09993107646586
O         5.06491811516519   -2.79675444791861    1.31218493218067
C         2.21076655230658   -1.43440471878154   -1.88507967308212
H         1.34396235784438   -0.87550160475880   -1.49703313512729
C         2.28707681936291   -2.74679836231904   -1.11461076201393
H         1.30991608615711   -3.22774205525627   -1.10319241542054
H         2.59749999982036   -2.58214649217789   -0.08387659576722
H         2.99236024787780   -3.43372141326380   -1.57532841396640
C         1.98984624535379   -1.68590718862518   -3.37377242161639
H         2.69821281437868   -2.42063320224318   -3.74975334252371
H         2.09557668973988   -0.77245969005265   -3.95709504109789
H         0.98700810181625   -2.07977705213210   -3.53460661093864
C         4.99662672927056   -0.84275702639951   -2.65393161145843
H         4.51255746512541   -1.10014168398897   -3.60224318460681
C         5.68662004641822   -2.06307806767617   -2.06046085443227
H         6.48384467625287   -2.39754266198994   -2.72250397694917
H         4.99725566767715   -2.88976093311061   -1.91205459498264
H         6.12615356624612   -1.80609369749248   -1.09749951918012
C         6.01911636124654    0.25655878582435   -2.91230536964513
H         6.54274749151264    0.49980901023569   -1.99116737734796
H         5.54233264754706    1.15231456421558   -3.30080187925784
H         6.75265387922189   -0.08987073923639   -3.63874267112064
C         2.95399032701813    3.30737891098708    2.27518869833406
H         3.74919024281463    3.19029071724942    3.01928777574937
C         1.73177713978401    2.52772313546536    2.75114532088634
H         1.33799195215919    2.96461129413322    3.66760458130903
H         1.99238649395518    1.49201831239416    2.96276493328894
H         0.94256467763148    2.55006778037016    1.99905762544577
C         2.60613083397613    4.78309087252240    2.10871310856843
H         1.98178482213611    4.93036476631915    1.22920744280098
H         3.49452413657698    5.40205611458210    2.01734329721638
H         2.05150370927962    5.12683305056031    2.98067623600587
C         4.89781143993240    3.77142544536226    0.19663365030371
H         4.38441106804136    4.73755181782469    0.13057661521850
C         5.45324938352153    3.41899331825007   -1.17560584195383
H         6.16065759039123    4.17881958658961   -1.50434785156302
H         4.65398425323023    3.35021778053692   -1.91083468128122
H         5.96735770924433    2.46328490152845   -1.12968529050476
C         6.00749952293489    3.81024678076928    1.23925953561376
H         6.37761245873543    2.80164904337400    1.42317353385736
H         5.66119029886030    4.22561346950588    2.18297921798604
H         6.83581079171582    4.42014227898077    0.88248036435373

