87
CSD_code = HEFHOR | q = 0 | S = 0 | Stoichiometry = C28H52N6Zn | MND = 4
C        -2.90406614468895   17.91354554832303   14.61765085767110
H        -3.59888993035064   17.49066882951164   15.31865756978759
C        -2.41827600912830   19.23625605193569   14.61066999737964
H        -2.67435100797178   20.01723835243308   15.30191976303334
C        -1.55443173147668   19.32771376609896   13.54397479789060
C        -2.30689486171391   17.26963820019879   13.55779614450539
C        -2.37563286543804   15.83837105612230   13.12421604351651
H        -1.66990111238537   15.24259219681250   13.71353697746073
H        -3.38519684412523   15.45185006270361   13.33392133778566
C        -1.88805357437536   14.37253156103875   11.15946899545943
C        -1.86360298850910   14.49575134927702    9.63206276105155
H        -1.05717049435688   15.15587860021367    9.31973863381086
H        -2.81307061930328   14.87813353628138    9.25806744084291
H        -1.69514329969124   13.52111920295109    9.18092323396983
C        -0.56648690459586   13.74229648186510   11.60688608639648
H        -0.48642664971960   13.72026898822996   12.69135715763359
H         0.26469479195527   14.30449467322269   11.18896439449677
H        -0.50317887947858   12.71887879236295   11.24447666862915
C         2.00970247383134   16.51851976154104   13.98626370856483
C         2.85970396012980   17.75874172025697   14.27854152357314
H         2.23664387646507   18.64926193990900   14.29657350998400
H         3.64274124190300   17.88813590662586   13.53639680087183
H         3.33132910455613   17.65736711719799   15.25306692447842
C         0.82753753696870   16.49594748214196   14.95846225081286
H         0.30491788225331   15.54374943057775   14.90357720704191
H         0.12175640241774   17.28652048626471   14.72299653356109
H         1.17464977489724   16.63147505206229   15.97969251640582
C         2.86187189958272   15.25964258833638   14.22916940265937
H         3.81421176246280   15.31825652501286   13.70812239027953
H         2.33390678242417   14.36842132306148   13.89372855591699
H         3.06490521556641   15.15377825414029   15.29204712595484
C         2.42503030413947   16.30731390253659   11.54525278324209
H         3.24639026666126   17.02714572730399   11.63778318333577
H         2.86072408622616   15.29860842258840   11.60316485458429
C         1.77850936533841   16.46925636163954   10.20630717125602
C         2.09221430040133   15.91717205770224    8.98501447192084
H         2.87879382480616   15.21601327070363    8.77793147601814
C         1.17611018793256   16.45053224167490    8.05612880298500
H         1.12958766237989   16.23511240634795    7.00500621534041
C         0.35692044763532   17.30100381556049    8.76189613822730
C        -0.80618978919861   18.14329420511561    8.34683997942530
H        -0.48575115223343   19.17893719216025    8.18897310639588
H        -1.20377792163472   17.76308665148167    7.39557104963767
C        -0.72981960581597   20.46570129263318   13.02652968428761
H        -1.32503695107917   21.08419635397710   12.34538085598860
H        -0.42589548750300   21.09970634866905   13.87156662782141
C         1.30107803752718   20.90504417540524   11.62382883666908
C         1.73219351284672   22.03479519690153   12.57117105043772
H         2.14817303039208   21.62840382210756   13.49184069592205
H         0.89700700080093   22.68413566057751   12.82188233874801
H         2.49682895847295   22.64156883173024   12.09298582658279
C        -3.02202978993892   18.91820326903311    9.23140441364954
C        -2.69978958428557   20.40352072588161    9.38090001733003
H        -2.02557733222746   20.74394017426044    8.59980981905642
H        -2.23616709498002   20.57007525479682   10.34816575524207
H        -3.61235433192018   20.99121618249233    9.32076773676944
C        -3.67772254667529   18.66038067649412    7.86528100807130
H        -3.81023777804942   17.59261346138444    7.69574525256966
H        -3.07845613605381   19.06913349346376    7.05560891669190
H        -4.65581724417198   19.13376635358581    7.83198303331012
C        -4.00547140609771   18.51482430908384   10.33476346629883
H        -3.52913167829040   18.59028230873355   11.30888139655368
H        -4.35513002058026   17.49380297624973   10.18691986441225
H        -4.87398580072994   19.16829743772739   10.32457731802208
C        -3.06020310791769   13.46065146180440   11.56271324477288
H        -4.01303014388582   13.93994003447735   11.34205230081255
H        -3.02796006130899   13.22387173261925   12.62306404262258
H        -3.01147452708859   12.52799425737927   11.00600099738408
C         2.54417954035798   20.14097970670216   11.16401245630123
H         2.25246657755942   19.28462779654130   10.56250757140128
H         3.11622086776030   19.79040913161458   12.01959307012436
H         3.18489907624386   20.78429616979021   10.56658200415214
C         0.60005073297788   21.48783041609207   10.39884955499411
H        -0.25672990087554   22.09495144546510   10.67901619718684
H         0.26767754334439   20.67449037268369    9.76072502771260
H         1.28882559803689   22.11554083979668    9.83939021195051
N        -1.49379776064107   18.13367733078851   12.90340467913888
N         1.46139072006112   16.57095829289769   12.61855042924978
H         0.75105795292170   15.84374001177309   12.56417325731625
N         0.73289278719988   17.31896532780612   10.06548830858258
N        -2.01036246349334   15.73161710228740   11.71145070255592
H        -2.75432984443758   16.20192678698089   11.20282316051599
N        -1.80019734199779   18.11864198793421    9.42764978421940
H        -2.09464657432755   17.14750579207252    9.49601480842943
N         0.41867017896139   19.92820180835207   12.28694262318898
H         0.99152374851570   19.43689570338398   12.97173295767221
Zn       -0.36504172017226   17.92475709402722   11.43777215149046

