50
CSD_code = HEFJOT | q = 0 | S = 0 | Stoichiometry = C21H19ClN4O4W | MND = 6
O         4.18718818984977    1.73871424148799    0.49201734202003
O         8.47297985635315    6.17763038382309    0.91883451609303
O         6.62142083728709    4.33860787253764   -1.99181420463500
W         6.48965726858303    3.77959237383932    1.06405350919841
Cl       11.22536241353057    2.90814378370998    1.63791138981812
C         9.32304391493340    4.07851546963427    3.22251364465816
C         8.96920613484438    0.14501459676302    0.98814027440155
H         9.28965766541145   -0.78345047694728    0.56209910699116
C        10.48030028439054    4.23698897983712    2.46252212720498
C         8.83646691491472    5.19397202406075    3.90292359380593
H         7.95700142378299    5.10438128608083    4.52230888305483
C         9.24809528856938    0.61536099816559    2.24815430651034
C         8.17771832101089    1.12888223979829    0.37140422493800
C        11.09286624961437    5.47538308561615    2.34358613614538
H        11.97426033800427    5.56895958732804    1.72886380305186
C        10.57759934137895    6.57224760051731    3.00651419743759
H        11.05520895759938    7.53370866104672    2.90465830113394
C         9.45056771539817    6.42685642169014    3.79609896187110
H         9.04075223226388    7.27378926404193    4.32348655034197
N         7.98531873444813    2.13498922908685    1.20905003979259
N         7.34469267982178    2.86203013175087    4.00729965782230
N         8.64209166797265    1.82994775479376    2.33966435100409
N         6.34674102710123    3.37575406232689    3.26841611980305
C         8.67647964690384    2.71718742871529    3.47266772526299
H         9.27886362216390    2.21287671348438    4.24014073090943
C         5.28333480443484    3.43787522154832    4.05503669650914
C         3.96412696461157    3.95215152831845    3.61232300254999
H         4.04101652998141    5.00372572087981    3.34007476000502
H         3.23741972108241    3.84489245764683    4.41363886903631
H         3.61391137795630    3.40914464175933    2.73588771372748
C         6.93922727843893    2.60083425238566    5.27821025241517
C         5.61318255874501    2.95874658370586    5.33491422314118
H         4.96245152707864    2.88708750498829    6.18202397249054
C         7.82786312337763    2.04825877173457    6.33224170847315
H         8.18804886872590    1.05385191917933    6.06625548404396
H         7.26870992707470    1.96798510990578    7.26015244386394
H         8.68863169348097    2.69547420880168    6.50350701924764
C        10.05228161534238    0.00157846132895    3.33522836093412
H        10.90675347811920    0.62770451511532    3.59324646219505
H        10.42491170066229   -0.96085593084819    2.99616649881694
H         9.45222524150770   -0.16229222103373    4.23123405812757
C         7.62599806339962    1.09467914442713   -1.00568433633683
H         6.53693839730624    1.10352657976891   -0.98609003976922
H         7.96390986913245    0.19670159652729   -1.51679701263524
H         7.95458406683422    1.96973188661713   -1.56407198222314
O         4.40828082928807    6.08169728737428    0.85259569476694
C         5.15493109949929    5.21593743647288    0.98964560877384
C         7.83229828659152    5.24514985549618    1.11825285010914
C         6.60536881693673    4.07649441668381   -0.87133165519849
C         5.06085343426012    2.42613533802802    0.78072405829907

