75
CSD_code = HEFJAF | q = 0 | S = 0 | Stoichiometry = C24H44N6Zn | MND = 4
Zn       -2.03564922604178    4.04651183519786    4.34973046277956
N        -2.92944000592723    4.97106669279077    2.97972205562698
N        -3.96832744665620    3.09835609945321    4.66242927907954
H        -4.21285370507024    3.85568409737444    5.30350237596969
N        -0.13626882152104    3.59284930547725    3.36733021154280
H        -0.19483322811102    4.38443409477195    2.70392050716370
N        -0.98895361006777    4.75164986416133    5.73473331933807
N        -3.66243031388993    5.78469656390875    6.25885098211133
N        -0.31664636753706    5.98983290544778    1.64315607727452
C        -0.12715575396556    6.45681453578099    6.89920034636964
H        -0.02951816247898    7.27306010238697    7.59053727283836
C         0.88016529113653    5.94356946126571    6.05827237653153
H         1.89379579608080    6.29235674611588    5.98367132651159
C         0.88868254276651    3.95309403921836    4.35932323267797
H         1.19741247737796    3.04567218010697    4.88925405538832
H         1.77860747928139    4.39480443280394    3.89487563155973
C         0.11938800264402    2.38359833611672    2.57024426713493
C        -1.06452534323565    2.24106849478262    1.61270680750516
H        -1.14573170241327    3.11898474040663    0.97895697527238
H        -1.99093810043230    2.14444433146448    2.17480515979679
H        -0.94558693295459    1.36431344178681    0.98071914695132
C        -1.38068100872830    6.77361979947207    2.28409979055243
H        -1.08001804753550    6.91378307466502    3.32833270884870
H        -1.47022114683005    7.76609274292526    1.81217631863254
C        -4.21459651784592    4.59298197756691    2.76565170832044
C        -4.81745061427013    5.45297869085065    1.87643955151333
H        -5.82841149820229    5.40498940700191    1.51598239122989
C        -3.84456418320543    6.41050595053462    1.53462580578887
H        -3.97147253257332    7.23984855516665    0.86356417962104
C        -2.70325392987670    6.08478725698261    2.23447847218325
C        -4.73051124467514    3.35323722258754    3.43144449166553
H        -4.60116432108856    2.49994345926017    2.75631966417896
H        -5.80473928279796    3.46664310589399    3.62829639950564
C         0.30899216298345    4.91151823001984    5.35294864069367
C        -1.25608220236446    5.70663185611247    6.66616210521037
C        -2.61314016798489    5.78810667544615    7.28234188888216
H        -2.77665063058672    4.91211878082980    7.92262113515962
H        -2.67489372837335    6.68724212430366    7.91787321939132
C         0.18758700503310    1.15370856749794    3.48042828033146
H        -0.59600768381557    1.20614030094846    4.23441758211082
H         1.14724376545798    1.07991796520611    3.98547193977998
H         0.04923490462388    0.24801412137237    2.89521882338212
C         1.41471518555341    2.50800838978896    1.75890653110678
H         1.37356337051869    3.38603439566344    1.11906659287209
H         1.54946227737804    1.63047185012267    1.13137012928314
H         2.27965238886360    2.59287137652157    2.41199863477378
C        -3.84391786923520    0.64380140714913    4.47573010585459
H        -4.53329529551713    0.52166909104810    3.64439947791785
H        -3.85872267976616   -0.27330181188953    5.05886025851672
H        -2.84110226347482    0.78561780219435    4.08025855724054
C        -4.23379428621937    1.82888559009547    5.36091546382744
C        -3.35715628354236    1.83320201945993    6.61464012058968
H        -2.31229338787070    1.97648685490862    6.34367247739628
H        -3.45236829613304    0.89392744738096    7.15352501900580
H        -3.64649879028683    2.64184041571075    7.28068515170703
C        -5.70710842827997    1.70741244528559    5.77322165112079
H        -6.35294583529886    1.61416795629352    4.90374209090324
H        -6.01835858464403    2.57924023456377    6.34524809967603
H        -5.84807148392929    0.82484116978375    6.39198730786400
C        -0.58271428688384    5.83133948423890    0.22525303882955
H         0.16051218936507    5.16560860141717   -0.21567234699400
H        -0.55241410491019    6.79016851628724   -0.31332329330180
H        -1.57445215076372    5.39950163415302    0.10075307032520
C         0.97453773601562    6.61752108876972    1.85781325848389
H         1.75547828969676    6.00143947322966    1.41025003045333
H         1.15937054293571    6.70153822978070    2.92810744379375
H         1.03162269144831    7.62258513402039    1.41333961514491
C        -3.60965537664558    7.01187067823248    5.48039166166956
H        -2.60068454647728    7.14795568396604    5.10148069946349
H        -3.87899181953276    7.89108107693439    6.08537691705986
H        -4.29299008757269    6.93848446182543    4.63621385047337
C        -4.97472114500791    5.65932009901716    6.86985284996018
H        -5.03157813145284    4.73799177340506    7.45194871678411
H        -5.73535653952891    5.63675106159243    6.08829099138144
H        -5.20341496513957    6.49959420358822    7.54395886041338

