43
CSD_code = HEFPUF | q = 0 | S = 0 | Stoichiometry = C18H16N6PdS2 | MND = 4
Pd        1.72430461143494    2.81655798059441    4.97427247545693
S         0.41353885018582    1.27092311180875    6.20291307540186
C        -0.04392924365290    3.47727811103606    4.34615877790220
N        -1.05815670383882    2.70411015187285    3.88138967383994
C        -2.12039478953376    3.52551545343242    3.64683072372581
H        -3.07434211849324    3.19894810971890    3.28879459335772
N        -1.82824697287715    4.75063195622998    3.94462075409623
N        -0.55410496613134    4.70896078668416    4.37608169368640
C         0.11733996432702    5.88852654551777    4.84596712188909
H         0.93485738141863    5.57771580737433    5.51013607446199
H        -0.59369063325961    6.51094820194846    5.38716232510731
H         0.52662194902780    6.45268330981840    4.00553388416753
C        -1.02551674633278    1.29659656162009    3.80247855969070
C        -0.37692027880901    0.55745957921255    4.80926892474331
C        -0.44891631370162   -0.83574435632088    4.73068852398124
H         0.01891182494930   -1.41177265503526    5.51444438509636
C        -1.09744804931740   -1.46536184987061    3.68933008597496
H        -1.12833773222658   -2.54395222679103    3.65359420899330
C        -1.70231330725358   -0.72112682806385    2.68726092825364
H        -2.20085099566867   -1.21002202977301    1.86506151431537
C        -1.66778402144487    0.65926377692685    2.75151138732745
H        -2.13527630690096    1.25530765230911    1.98085513428182
S         3.03503902230682    4.36221133408433    3.74591219605678
C         3.49236665612557    2.15554101562918    5.60247224646799
N         4.50665334241393    2.92856261803786    6.06732463743901
C         5.56884735508449    2.10705018028748    6.30168787121990
H         6.52281987702297    2.43350513601274    6.65975967883256
N         5.27666406728888    0.88202625662784    6.00354465005968
N         4.00249182387427    0.92384761635341    5.57218452774373
C         3.33096531686483   -0.25554927374109    5.10199047573386
H         2.51342855355769    0.05550659893203    4.43795181195482
H         4.04193487118552   -0.87785355209637    4.56057462503567
H         2.92169264696558   -0.81991074272913    5.94229113523079
C         4.47404382840646    4.33606634184122    6.14643915308783
C         3.82545606880057    5.07537448280134    5.13974654621825
C         3.89722885906093    6.46856474960725    5.21871696339718
H         3.42949546203595    7.04473340511690    4.43501162819677
C         4.54563321714471    7.09799801568143    6.26026172973511
H         4.57664802862863    8.17658192874958    6.29610937104800
C         5.15062186561843    6.35359432324123    7.26213256875375
H         5.64924447412936    6.84235313460414    8.08437115933500
C         5.11623750012540    4.97321390152361    7.19755720239660
H         5.58374176145783    4.37703537918506    7.96810499630514

