43
CSD_code = HEFQAM | q = 0 | S = 0 | Stoichiometry = C18H16N6PdS2 | MND = 4
Pd        1.22108892246902    2.36161704145578   10.74330409943727
S         1.97060588857953    4.53849228973721   10.39095629002472
S         0.45696929573277    2.13353066779219    8.55608110044379
C         1.60351446791975    2.77200154260712   12.66374932926315
N         2.72348131471877    3.36347762906767   13.14542806415079
C         2.51236808134808    3.61417545465828   14.46827163930657
H         3.21658143947567    4.09291627230905   15.11595966302417
N         1.33521974023081    3.21607325608881   14.83191529484337
N         0.78118307924689    2.70370388357083   13.71468861258865
C        -0.56516631213605    2.20510894877397   13.70250887855255
H        -1.18996546475658    2.84926266621751   14.31932287374938
H        -0.60356055062678    1.18787279173825   14.09878790924776
H        -0.92559804916649    2.21583567378626   12.66461358547702
C         3.81362113789056    3.76032517977750   12.34351401679640
C         3.56434589287428    4.29039986256163   11.06063316336752
C         4.67158374624588    4.74380239209243   10.33413126510285
H         4.49255854795721    5.17533257192018    9.36129540701456
C         5.95151303222143    4.63657531778935   10.83140592135015
H         6.78479715735095    4.98533218813840   10.24006740227929
C         6.17847919254048    4.07988746678234   12.08368501090761
H         7.18147991234082    3.98790481312265   12.46988181620899
C         5.10460160464123    3.64769744204426   12.83793065310995
H         5.25858187355667    3.21488328152607   13.81664174922276
C         0.85393964965681    0.39802412406963   10.85225495777946
N        -0.25801174546842   -0.23538598643932   10.40678815694641
C        -0.03204153709782   -1.57500010931104   10.51476940637089
H        -0.72665704835180   -2.33420634934201   10.22213667897366
N         1.14695706285676   -1.80745322473392   10.99678520577597
N         1.68676476278424   -0.58859704638226   11.19727256560496
C         3.03088357847744   -0.43078162897962   11.67721830282318
H         3.66262003205689   -1.19430493201450   11.22554615284118
H         3.06732179896156   -0.53698605790113   12.76398709863486
H         3.38439843377921    0.56823142197982   11.38679472870842
C        -1.35759676628258    0.41833457033427    9.81330551486658
C        -1.12606151700915    1.52274461168303    8.96759890405611
C        -2.24243849996872    2.08709622465399    8.33928233836805
H        -2.07669158029898    2.91668312635502    7.66923216588290
C        -3.51478103705264    1.61332552180106    8.57067952899620
H        -4.35533721168893    2.07919324224925    8.07860076622331
C        -3.72473598315055    0.54582966356491    9.43440594005735
H        -4.72187397284673    0.18016026288136    9.62312016788942
C        -2.64124303746168   -0.05119559012481   10.04943571945345
H        -2.78199933254467   -0.88542047793360   10.72261195427689

