43
CSD_code = HEFQOA | q = 0 | S = 0 | Stoichiometry = C18H16N6PtS2 | MND = 4
Pt        1.71436280434815    2.81937464048302    4.99126364130922
S         0.88248551805137    4.23186142161626    6.73460133761856
C         2.46284944329291    4.50204660226848    4.22745576477614
N         1.80547445289668    5.68819294854081    4.12998480725942
C         2.68272257586475    6.60272655089898    3.63164417364128
H         2.45610138723836    7.63479331049115    3.46413222725655
N         3.83812061331550    6.06157772028189    3.42136216229570
N         3.69350329274989    4.77654014962705    3.78933237539823
C         4.81175154971094    3.88219061740266    3.70706679179004
H         4.67252702958905    3.07186102351517    4.42376407766767
H         5.71915592686914    4.43853501832026    3.93583456275762
H         4.88783694322002    3.46386809513410    2.70228428798639
C         0.48931644573246    5.94828090906587    4.55750672653330
C        -0.00989637746139    5.35008618630456    5.72551489241234
C        -1.28790399670572    5.72357133652700    6.14809910434030
H        -1.66607716190284    5.28797583221003    7.06023174581068
C        -2.05096707352571    6.61868916913024    5.42947105046668
H        -3.03762700118651    6.88213507486884    5.77931359826275
C        -1.56041087551395    7.16951834404847    4.25478143918144
H        -2.15914593066279    7.85696934347063    3.67810980955137
C        -0.29018017364217    6.83410225124057    3.82677876370971
H         0.10571903389628    7.25356917146425    2.91318493131576
S         2.54583783971511    1.40672000731590    3.24773716310070
C         0.96558279119027    1.13786214219640    5.75715724684831
N         1.62278583697704   -0.04842496311518    5.85392061530820
C         0.74552330976880   -0.96302138244294    6.35214824325967
H         0.97210678871015   -1.99514547126653    6.51939521788461
N        -0.40992971283093   -0.42194374415594    6.56231630702889
N        -0.26525098934253    0.86319320825777    6.19469200462267
C        -1.38360777376087    1.75742859686892    6.27660786372686
H        -1.24424016276448    2.56786827040267    5.56005811823174
H        -2.29092608228538    1.20107506774881    6.04754266115316
H        -1.45996122395776    2.17560576393303    7.28141227392539
C         2.93890027915227   -0.30848655622595    5.42620492952434
C         3.43824256178026    0.28971892720992    4.25818295592056
C         4.71619474472239   -0.08392636587154    3.83562758853111
H         5.09434550634000    0.35147195693012    2.92338929482862
C         5.47920871576640   -0.97902491118779    4.55431067792080
H         6.46586241350702   -1.24252202587095    4.20448529125555
C         4.98859130805681   -1.52983724820095    5.72897345924750
H         5.58729565839083   -2.21729885280003    6.30566647007545
C         3.71833092164803   -1.19443323831712    6.15689586635703
H         3.32238884304225   -1.61394489831907    7.07045747990760

