42
CSD_code = HEFQIS | q = 0 | S = 0 | Stoichiometry = C19H15Cl2N3O2Zn | MND = 5
Zn       -2.01736969704391    2.36928647453104    9.41937842017459
Cl       -1.91578487944012    3.80154475174785   11.14742054991274
Cl       -0.43093028985156    1.33313048916972    8.27959457406271
O         0.91901158935423   -2.60237616874487   13.30777424257722
C        -0.00785568446205   -1.86243023731521   12.66067231716231
C         0.27590387338238   -0.51947917149469   12.40465401787798
C        -0.63321081124223    0.26265142600115   11.73506410101142
C        -1.86782444760811   -0.26253123214223   11.33215172626430
C        -2.14668704048691   -1.61007121811005   11.59105657722504
C        -1.22210963054190   -2.40064389842697   12.23731209460376
N        -2.72357223569048    0.56671017800951   10.64844806354641
C        -3.99169593252756    0.43325754025412   10.62783792424185
C        -4.77869862602924    1.35308451959771    9.82931253200308
C        -6.17645514288047    1.38131239918438    9.83644157453177
C        -6.82232819339869    2.32773529799917    9.05717773348034
C        -6.07644656112952    3.22004965748075    8.30374706945215
C        -4.68217821778424    3.12887102078751    8.34951909580333
N        -4.08348187524370    2.20284651161697    9.08586895947851
C        -3.79668556756987    4.02732039166403    7.63422718690872
N        -2.54038030346730    3.94403065214642    7.83695111487616
C        -1.59971298328254    4.71208344917586    7.19430091303520
C        -1.77974232603850    5.22957551511036    5.90554392062666
C        -0.77598725451082    5.95227995639066    5.29923340778125
C         0.42176493295180    6.19540014832552    5.97034624447588
C         0.60771519113048    5.68005618213644    7.25476051230975
C        -0.38151416225445    4.93545422636510    7.84948606033189
O         1.42414287681792    6.91021891052118    5.41393553140694
H         0.61589634380992   -3.51370547205003   13.40740877030982
H         1.22311452840774   -0.12137029131539   12.72966786264647
H        -0.42112450583034    1.30148096248897   11.53274069533551
H        -3.06658524626119   -2.05168184658741   11.23687865308171
H        -1.43324714253497   -3.44843607192428   12.40953380519268
H        -4.53145784084415   -0.31556963156747   11.21100880154628
H        -6.73268564723614    0.68422519028053   10.44329645625559
H        -7.90107557993888    2.37489343203884    9.04344389724324
H        -6.55399525881605    3.97538697544025    7.69959578723823
H        -4.25611964367364    4.76810288021808    6.97686755013188
H        -2.68642268553456    5.01887608219284    5.35772143766359
H        -0.91213640665016    6.32692296141068    4.29286370581551
H         1.54337901720715    5.86799192190723    7.75562550088622
H        -0.24551339500245    4.53335816105604    8.84190492776510
H         1.18318686174804    7.19525697442438    4.52342568372461

