79
CSD_code = HEFRAM | q = 0 | S = 0 | Stoichiometry = C32H36BClIrN7O | MND = 6
B        -1.82181488822943    2.00544878879097   12.43230656990678
H        -2.14051434143705    0.94994315148850   12.01618543238335
C        -0.24157200669375    0.72787925365396   14.04203657948756
C         0.89049490885771    1.05905331529541   14.76034941181134
H         1.52010477461383    0.39977829361049   15.32217811167605
C         1.04844515048781    2.43797128599647   14.60078857562806
C        -0.87549842255306   -0.60613884869095   13.87943883207137
H        -0.36800999894995   -1.32742886500538   14.51435384227499
H        -0.81175700995826   -0.94267358287542   12.84581803015665
H        -1.92699176802532   -0.56638346830470   14.15685116016116
C         2.18273375167639    3.24926925646008   15.11599423544485
H         1.96294230793564    4.30951194071259   15.05164018813111
H         3.07312582998593    3.04777077892178   14.52000295013742
H         2.40197959355865    2.97368367977281   16.14492802440796
C        -1.27066354605812    2.65705842159822    9.98209720678074
C        -0.87472332378984    3.81554059735728    9.34260500048555
H        -0.76384817815730    3.96783377321308    8.28828678365654
C        -0.65524489121722    4.75382396769635   10.35357549685983
C        -1.63118725683446    1.34914983313937    9.37384006609298
H        -1.02397527076225    0.54891003563448    9.79230758780365
H        -1.46663250953301    1.39375286854331    8.30061441807434
H        -2.67759049633706    1.11150633544749    9.55768499760304
C        -0.25314128575129    6.17252425890706   10.18389196597145
H        -0.76625848959028    6.77778826048672   10.92555979115364
H        -0.51217641280138    6.51041405628190    9.18341597459768
H         0.81962566699033    6.28976728545578   10.32828192060271
C        -4.32616566350826    2.44580304032485   13.04971759740049
C        -4.98976199081008    3.51004472863271   13.63163957302185
H        -6.04413756822070    3.60549300207331   13.79620212374089
C        -3.99648013454646    4.44318643666504   13.94936669823313
C        -4.88737911279138    1.17936474671077   12.51043720146420
H        -4.72384377110530    1.11514371138605   11.43562794313299
H        -5.95636271086399    1.14399947502014   12.70368285415269
H        -4.41433258799857    0.31593279138455   12.97505967691936
C        -4.15122706925800    5.77253922161139   14.59383270148943
H        -3.99739269682686    5.70070291079816   15.67196381979173
H        -5.15093223592007    6.16056670820371   14.41409228669773
H        -3.41031157673296    6.45105168073561   14.17491920852165
C        -0.43788975940498    2.24546480706512   18.15332673906768
C        -1.49970083844468    2.25615381998684   17.26394729774030
H        -2.21111022868017    1.44543564426577   17.26175077665573
C        -1.64459123675129    3.30904365527465   16.38184778764450
H        -2.47808689535165    3.31993563096051   15.70196558571699
C        -0.72526603925415    4.35514517077307   16.36290082301375
C         0.31823961105595    4.34180336837183   17.29087055303720
H         1.03100503901674    5.15288284599914   17.29529877867747
C         0.46666334790928    3.29449739629432   18.17847803168609
H         1.28256434746337    3.28878856001961   18.88426491789786
C        -0.94066843526527    6.61376539495856   15.88539658568610
C        -1.37580480917323    6.85232100842358   17.30859613780577
H        -1.78600323095542    5.94826998575135   17.75224404905668
H        -2.13586050890253    7.63016848766674   17.32570475872702
H        -0.53814124018751    7.18392049103144   17.92035241803044
C        -0.75044752675303    7.79956645032882   15.06333745782850
C        -0.59963261110729    9.01732841161752   15.59723564368597
H        -0.57069488200551    9.20746717429714   16.65574394655014
H        -0.45720746915989    9.87497837748924   14.96292104909087
C        -0.66215834398073    7.61395351600917   13.55451020284305
H        -0.89175637690139    8.58319649748257   13.07918711979016
C         0.76740264913869    7.20416440232863   13.24460847224372
C         0.95346229046191    5.82422299554027   13.10354432089559
C         2.19846217745486    5.38054861149391   12.67850870095455
H         2.36277341952382    4.32856858901660   12.49540500982102
C         3.24095945426645    6.27271132255058   12.47508957893665
H         4.20571678997618    5.90609223274062   12.15191207190991
C         3.05244790827329    7.62909727100953   12.67727940935842
H         3.86833767642741    8.32037467557745   12.52072044562508
C         1.80510352493941    8.09988310073638   13.05025551718986
H         1.63577205165389    9.16103824116453   13.17092544934539
Cl       -0.24334367660820    0.91928068668310   19.24400986069294
Ir       -0.76800470999708    4.81587644602535   13.45947077883210
N        -0.71727506446671    1.85903194888790   13.49143767348781
N         0.05379804145236    2.90312407158963   13.84659111984640
N        -1.27830280390462    2.90371304816401   11.30443790673955
N        -0.89641028116452    4.17747062224048   11.52948202024538
N        -3.01341947505089    2.74585345219702   13.04220694759880
N        -2.81597780521602    3.95395784949516   13.58968647320457
N        -0.78396004978117    5.40937265982494   15.42368914902196
O        -1.54241879936760    6.67084795154144   13.07578359588442

