50
CSD_code = HEFROB | q = 0 | S = 0 | Stoichiometry = C19H27Cl2NZr | MND = 9
Zr        0.85265625243489    2.54169960985804    2.84799002182557
Cl        0.41176788176653    0.25669182159275    2.50523758610061
Cl        1.53638211563192    1.84509246745085    5.05001643883831
C         2.98968147730542    3.78078299953831    2.88891219271406
C         3.16917739178317    2.51089523899326    2.26783895842562
N        -0.58028229929974    3.84749396470050    4.15730524320416
C        -1.48880673585063    2.84059013750701    4.73483276967674
H        -0.92688491971444    2.16767307837846    5.38816325309460
H        -1.95573731463610    2.25367043817042    3.93388219942428
H        -2.27903114309393    3.32717174818377    5.32494391779278
C         3.98458496453862    1.35531830769789    2.78208113105947
H         4.86247976095050    1.19289318489275    2.15140995508540
H         3.39136267987686    0.43419397797068    2.77676437785226
H         4.32351556044653    1.54301633258723    3.80023359497546
C         2.50007444268231    1.39341495097390    0.02877008128826
H         1.88182518998176    1.62150132899228   -0.83733734694496
H         2.14707812020482    0.45860925627811    0.47212674493246
H         3.52374836716236    1.23501281238851   -0.31810361905951
C         1.83457427145086    3.78407027611279    0.89111278155151
C         1.90602105553282    6.04174545948077    2.15159897862146
H         2.70945404615055    6.58843110408483    1.65101162828458
H         1.87855051174706    6.38334878539291    3.18622188356463
H         0.97291422367589    6.32132760321703    1.66331499896313
C        -0.91798554980343    2.95137611055375    1.61415946630244
C        -1.76026012159936    3.99994419155042    2.01798864929583
C        -2.90027194265436    4.35619180712091    1.30987845945697
H        -3.52416801302571    5.17221469069856    1.65236558862090
C         2.46184592364230    2.51503671867632    1.03057538225237
C        -1.30344542410677    2.26169180024741    0.45958682415765
H        -0.70141515850959    1.42388394594953    0.11584117440732
C         2.15346836573578    4.56086505589132    2.04457371367197
C         1.15479587888184    4.32173314473000   -0.33694276990541
H         1.84795859276834    4.94795189045195   -0.90394437865054
H         0.28591466629987    4.92835150677622   -0.08090739449882
H         0.81818530392358    3.51619654177244   -0.98517853284513
C        -2.44013556827541    2.60758712116868   -0.25839432539666
H        -2.70964430158808    2.05430040684419   -1.14736558011316
C         3.69673930991759    4.24592918158629    4.13393314758560
H         3.45329024854824    3.61580573026109    4.99158166760996
H         3.43088670322945    5.27372583954274    4.37413165307025
H         4.77740382929608    4.20782379051408    3.98450390935429
C        -1.36266460955464    4.73837893484500    3.27959835360603
H        -2.25288631653995    5.11519013852651    3.81078020043934
H        -0.73941481434628    5.60405335973086    3.02067898402395
C        -3.23610844746619    3.65998696560559    0.16134088871939
H        -4.12052511307917    3.93205349520213   -0.39637408799651
C         0.02117381694914    4.62840442306523    5.24259710566141
H        -0.74921105132969    5.15053541458457    5.82692240231420
H         0.70801311399866    5.36766411918290    4.82743387973456
H         0.57905477802644    3.96257879036770    5.90300784787711

