47
CSD_code = HEFSAN | q = 0 | S = 0 | Stoichiometry = C20H21Cl2N3Pd | MND = 4
Pd        0.90036798887798    7.60940941997932    4.47591918746480
Cl        0.38947640106720    5.58429115919982    5.29966467072641
Cl       -0.46263077678451    7.08392127182783    2.81134695576906
C         1.46369022850428    9.50547581486808    3.97274770210654
N         1.58430658940182   10.42909538440199    2.99790232859915
C         2.08889187152618   11.59565308347953    3.51465530322336
C         2.31921793664221   11.41244034470904    4.83218887057452
N         1.93416878440005   10.12120182117326    5.10892572940591
C         2.14520818299569    9.38854265949767    6.26311242624459
N         1.92108485997302    8.12036995603052    6.15598704419014
C         2.66711153834448   10.07620051762545    7.45570953322420
C         2.01944557845969   11.20232232824958    7.96055547773580
C         2.50380616158737   11.83002909180976    9.09342285383812
C         3.63689686696066   11.34684415043182    9.72669610760635
C         4.28612747923000   10.22961433672272    9.22614502253319
C         3.80528401512152    9.59250146497138    8.09851107165850
C         1.27228310986382   10.20931093040819    1.57822779538685
C         1.81034697922432   11.36300641848974    0.72921232028649
C        -0.24624323349154   10.12812554177290    1.42831216705675
C         1.95361753050886    8.91103195800820    1.14062098788265
C         2.08266624684508    7.24238058079534    7.23568442083782
C         1.48012878393816    7.47710522795034    8.46890466516749
C         1.64064568860942    6.56301747774278    9.49288895013087
C         2.40464770820560    5.42417589197171    9.30040274679072
C         2.99897274566977    5.18754112343496    8.07096114723690
C         2.83539858988355    6.08602303383533    7.03536812277408
H         2.25320194056944   12.47471553939765    2.93016974743223
H         2.72912517251837   12.07137358417153    5.56851890521198
H         1.12195169700832   11.56632111011070    7.48077817144663
H         1.99216627235103   12.69664006653861    9.48428725870462
H         4.01203591165862   11.83884021283523   10.61104018142618
H         5.16991877520205    9.85137671495991    9.71662416708960
H         4.31270490756733    8.72457490296248    7.70507257168279
H         1.65189121363924   11.11881035656254   -0.31756711550878
H         1.28445814802409   12.29311480636464    0.93342475970502
H         2.87830315866600   11.50708723891458    0.88122343379190
H        -0.50707371346156   10.00119371907675    0.38239659034426
H        -0.71299235177055   11.03993110028226    1.79615964587765
H        -0.62863811158200    9.27341802988925    1.98283522678330
H         1.68827511499474    8.68581591720902    0.11268563173512
H         3.03569483143474    9.00985860748491    1.21096958136126
H         1.62767441254125    8.07722701550754    1.76612045284266
H         0.85953646162645    8.35158593162008    8.60474057098006
H         1.15915284639098    6.73967732097324   10.44305857504941
H         2.52332186214590    4.71274341480140   10.10358001528595
H         3.57895245341455    4.29108278021243    7.91301846371977
H         3.27422114148720    5.90848064073149    6.06158955659749

