47
CSD_code = HEFSES | q = 0 | S = 0 | Stoichiometry = C18H25Cl2HfN | MND = 9
Hf        0.22203466961281    2.09261588661291    2.95440522027722
Cl       -1.97831797994208    2.76021653978955    2.30456946554498
Cl        0.91576500456146    4.05673156106032    1.86278905964271
C        -2.15487791876483    0.76637407819659    4.89320775005335
H        -1.83730876383280   -0.22320233529664    4.56876435982900
H        -2.85559365844864    1.16744282204894    4.16142640940309
H        -2.66284211248438    0.67320249329060    5.86135126025790
C         0.42344423580927   -0.45598643350538    2.87507244812534
H         0.12265176047470   -1.22387491899926    3.57428448593348
C        -0.00647009313601    1.12586099517344    5.93279261271746
H         0.18231065759236    0.07532103593911    5.68221960669496
H        -0.39698021277407    1.15949688971215    6.96166577187448
C         0.49592974292662    0.80905019182779    0.96862744334959
N        -0.99785557683429    1.65748062058796    4.98423633745594
C         1.59673527590212    2.47358759686559    4.58314949017937
C         1.29085779284387    1.89820877683140    5.82688576335879
C         2.14112762110500    2.00426486141309    6.91835916613549
H         1.87383149589314    1.54954502341861    7.86315845893498
C         0.12852779230097    1.41339507786186   -0.35827393875822
H         0.41826728738477    0.74730429299197   -1.17475060347251
H         0.63598575325399    2.36699019480274   -0.50680516726600
H        -0.94643841743628    1.57902313393010   -0.42288454293678
C        -0.34287626417099   -0.01583790531230    1.77021625200401
C         1.73816337636289    0.05588852883310    2.75614116915019
C        -1.71841833519043   -0.49652786809639    1.40198329145318
H        -2.43863349636117    0.32096529689677    1.36084359534523
H        -2.07043332947534   -1.23033286168059    2.12462203837733
H        -1.69685031224429   -0.97104350839538    0.42026477040935
C         1.78776856480691    0.84755695866686    1.57921402191033
C         3.66930735209690    3.27306373999579    5.58365314257853
H         4.60034059029811    3.81249322878579    5.48366060841909
C         3.01528590769302    1.48773070306390    0.99674208892307
H         3.79911337259553    1.56448517809714    1.74703892429266
H         2.79761221335174    2.48610062324748    0.61838328346200
H         3.39762844881778    0.89028422975283    0.16693686192581
C        -1.44872955018591    2.97456891428760    5.45700452996097
H        -1.91058805624173    2.89328131222964    6.44935492532545
H        -2.18321079534182    3.37988596104107    4.76075049579464
H        -0.60001870356984    3.66183338494021    5.51921769823738
C         3.33691724492776    2.69093251027393    6.79439044246286
H         4.00281179279975    2.77316413306067    7.64079595102481
C         2.80971836694807    3.16408925566218    4.49919032009433
H         3.08989899423956    3.63114859120459    3.56095329372366
C         2.90652340099201   -0.33465990201250    3.61338862133495
H         2.56759710648894   -0.85759670441022    4.50556671229097
H         3.48924017256164    0.53091344515595    3.92681577796051
H         3.56974758179592   -1.00333562984245    3.06162032620163

