53
CSD_code = HEFSER | q = 1 | S = 0 | Stoichiometry = C23H26N3Pd(1+) | MND = 5
Pd        7.54542356720115   14.49365580589448    5.22247677614611
C         5.55655214713057   13.90188632865000    5.13088221018686
N         4.30459364892770   14.32717233470215    4.92332491348857
C         3.40961056012712   13.32397853595526    5.19876497685934
C         4.11200256062964   12.24274964121661    5.60370734177589
N         5.43696183830109   12.60904003604993    5.56276912170257
C         6.54206728637255   11.91156281091095    6.04393020865179
N         7.60807537719437   12.61441203559285    6.19150018780593
C         8.82795655495266   12.09079644263373    6.64778937335146
C         9.39458039657825   10.93531810473886    6.11439417513488
C        10.61533123758015   10.49547993440484    6.59256998336437
C        11.26127445683307   11.18316305926967    7.60741787050052
C        10.69661628776650   12.33399978062693    8.13746347141736
C         9.48971069630856   12.79827193453539    7.65280205754240
C         3.98140099219213   15.69146928553985    4.47975682667118
C         2.47197163613426   15.91423747691891    4.45670638732133
C         4.55384996298847   15.85948129031238    3.06957805304242
C         4.62443146543690   16.66278233013226    5.47771335121509
C         6.37121262660754   10.49597985624318    6.39975458872175
C         6.77048258894114   10.03792434130993    7.65506431742753
C         6.61280023354839    8.70512646683732    7.98331996441018
C         6.07346938836064    7.81909691870488    7.06354376759106
C         5.68010915775872    8.26928213219998    5.81336718632314
C         5.81873197316370    9.60406702775505    5.48053130969201
C         9.64353267373490   14.90790884317438    5.13895600875386
C         8.92967590511649   16.09441480400081    5.00561802899990
C         7.93299012965535   16.16629845476826    4.00328989136665
H        10.36010284720071   14.80265394707606    5.94754511463622
H         9.85651848895077   14.30260456685964    4.24891069510479
H         8.98560665993715   16.86071450660360    5.77715052502804
H         7.34897322320926   17.07817409163970    3.93036509469544
H         8.14947415668633   15.69114805213758    3.04032241602488
H         2.35157516975248   13.43392177492045    5.09606247975516
H         3.78010273896784   11.27788504832447    5.92546370725526
H         8.89575171717873   10.40988986929420    5.31314442925070
H        11.06234723971633    9.60904865251705    6.17024587916312
H        12.20919231357064   10.82816917130747    7.97974345732289
H        11.20142463836496   12.87232067683472    8.92480742760842
H         9.03061883944748   13.69950277525030    8.04768713957510
H         2.27746756822336   16.94084067932923    4.15937301730819
H         2.03250488642859   15.76286163929557    5.43979864436688
H         1.98233233261761   15.26330330333386    3.73665005549687
H         4.46948696865914   16.89338142731806    2.75018614319718
H         5.60237731638957   15.56226394210714    3.05261835953780
H         4.00625937306366   15.23783340255684    2.36456575183067
H         4.53843759949521   17.68170516645655    5.11309118013107
H         5.68477749842143   16.42380560533659    5.62778032395050
H         4.11927649685217   16.59974401333400    6.43928525020734
H         7.18295172618072   10.73082540952364    8.37284515858283
H         6.91404459189090    8.35706206313317    8.95876926083140
H         5.95971790864225    6.77781688738944    7.32094698229813
H         5.26345155080956    7.58054625802111    5.09500700215068
H         5.52931079983067    9.95132105704760    4.49884215522426

