43
CSD_code = HEFSUG | q = 0 | S = 0 | Stoichiometry = C13H19ClN5O4Rh | MND = 6
Rh        1.20721085615525    2.14856635532613    3.60925633204495
Cl        0.47609013629977    4.29494652827795    3.48200918946912
O        -1.36015941404055    1.22327735558136    4.37415925083475
O         3.32045191332480    3.04190139550338    5.44910615800212
O         3.83224518416465    2.90440576661115    2.85369014459151
O        -0.94473791075605    1.36847451334543    1.76372780254877
N        -0.28543978920052    1.75118396304279    4.83194922689823
N         2.03167514291927    2.60755505468770    5.33563215426600
N         2.67587317148122    2.61607733448434    2.38199076548503
N         0.33602532764800    1.82589708359237    1.87526864952484
N         1.87930941745135    0.17247804291750    3.71984040895667
C        -1.12095311126826    1.88311235825623    7.14289154515163
C        -0.08188014573216    2.06026569173180    6.08226849369707
C         1.24176668962595    2.57426917637818    6.35891277476339
C         1.65020899671286    3.00520268112139    7.72648256156058
C         3.34064106097187    2.98244020225547    0.04097282528519
C         2.37155927105407    2.60114738079687    1.11404932596027
C         1.02022372013182    2.16835257562656    0.83281253684177
C         0.48548419023242    2.10575451393519   -0.55753541736418
C         3.17771765473580   -0.09790409629094    3.85798285253964
C         3.66391347779906   -1.39176240407229    3.91817649627750
C         2.77373541694427   -2.45064356700623    3.83263473499113
C         1.42485999205794   -2.16499728767932    3.69165842870706
C         1.01920249894292   -0.84332594486927    3.63972412799423
H        -2.01546937605101    1.47216643662674    6.67960283324432
H        -0.77521373376801    1.20425845956908    7.92153370263720
H        -1.36724183479348    2.83895398387834    7.60205300912905
H         2.67095287618912    3.37702819146295    7.70289558012942
H         0.98728175212042    3.79405819098506    8.07666311266379
H         1.58352186963153    2.17144504929725    8.42377378996739
H         4.28086221615352    3.26028897519955    0.51262653229364
H         3.51380834714067    2.15356252414265   -0.64443213634092
H         2.96646238791213    3.83042636550303   -0.52986134243464
H        -0.54933797062049    1.77472389191033   -0.53649339708952
H         0.53938670731988    3.09067653972120   -1.01726767958786
H         1.07488155746309    1.41688640420325   -1.16072618346474
H         3.85678127933290    0.74435047002324    3.91084248220446
H         4.72304598103009   -1.56008024982758    4.02940520847165
H         3.12197273655194   -3.47130714990625    3.87494967374920
H         0.69156118394062   -2.95232080696851    3.62195015537765
H        -0.03114898539766   -0.59725167054228    3.54192413990955
H        -1.28825361114883    1.31180123426158    2.72405154723561
H         3.66202286933731    3.10505848690671    4.48914760287930

