75
CSD_code = HEFTIY | q = 0 | S = 0 | Stoichiometry = C25H42MnNO4P2 | MND = 6
Mn       12.44741140589862   17.63859938661529   12.97037079392147
P        13.64854329034158   16.95105415049190   11.14990324975047
P        10.69006199944626   18.50526440484526   14.14977357017728
N        11.73535261347414   19.09356156901510   11.51291066350693
H        10.98742321368267   18.50416225576952   11.07612523723024
O        11.00969030688246   16.36191257100338   12.21999189432160
O        14.51337549346471   19.34453376654898   14.12660122124667
O         9.86126204814780   17.31955424165775   10.57114676079459
O        13.48467771977677   15.76645272887434   14.96379758547394
C        13.04041195631034   16.47412744312966   14.15877923129234
C        10.92249176950249   19.45693720087171   15.73930945001394
H         9.93174923520229   19.65294222965251   16.16398073745837
C         9.95566880734789   19.77090390826912   13.00498386710010
H         9.18613329653152   19.26544567590604   12.41202359843138
H         9.49296129813924   20.59479417466784   13.55177653972969
C        13.12792273546882   18.11195746193744    9.79598161352836
H        13.92721553266086   18.27609187726836    9.07073728434489
H        12.27587878400441   17.65287727909377    9.28366525748731
C        13.23008644269601   15.31424814793179   10.34973994140225
H        12.17399949440620   15.44344477935345   10.07636965627792
C        15.51256082901893   17.03920304753869   11.08928060200415
H        15.84482379614394   16.54099766153326   10.17185419966090
C        12.67014594405573   19.41763518513102   10.44064147817862
H        13.52225072077106   19.96627414626801   10.86037285552016
H        12.18963643962092   20.05950624597673    9.68377212583992
C        11.05750299389574   20.25983065675169   12.06858581630197
H        10.61945623142268   20.87656723022211   11.26637914893881
H        11.78668646394034   20.87463667048056   12.61037569600149
C        16.06318683868177   16.30754590908435   12.31007481749490
H        17.15149085930254   16.33869802925571   12.31498090118874
H        15.74835020681587   15.26757136888456   12.32637582480174
H        15.69516546988771   16.78498577599954   13.21911472341495
C        10.11609179169075   16.36661859682959   11.33297676274836
C         9.18556768877711   17.43939184193546   14.45880462609188
H         8.86302039621703   17.17785074499945   13.44181849208620
C        14.01228959191046   14.99835480072969    9.07847016733454
H        15.03510299607514   14.70770459575217    9.30819568362414
H        14.03032098306170   15.84537048159705    8.39497698284678
H        13.53831792817626   14.16189743586474    8.56650921401670
C        11.73907006278429   18.59223923469589   16.69557062197083
H        12.70801317052213   18.36702035855252   16.24815781217530
H        11.23953428032723   17.65022020874270   16.90540670241063
H        11.90176372014875   19.11378646699056   17.63733891733454
C         9.56049961275157   16.14356488514639   15.17249417618072
H         9.69515658781327   16.30600299402230   16.23972505465786
H        10.48861148035122   15.74761187287743   14.76062498673852
H         8.77531971908708   15.40055604514111   15.03963318029224
C        13.67652642504043   18.69875080635147   13.63345222025933
C        11.63197521260674   20.78888607901414   15.51559545124016
H        11.81611992060273   21.26624784245168   16.47702920019989
H        11.03763787852270   21.47303183036998   14.91414927382129
H        12.59218472731457   20.63156341277932   15.03111549815016
C         8.02602524296452   18.14474331061399   15.15582563939893
H         7.13170376882987   17.52849698091875   15.07296119904705
H         7.81197365604264   19.11172962082044   14.70409638268128
H         8.23161659185611   18.28690749248759   16.21454634566199
C        16.02100626967003   18.47758089584053   11.07794044092968
H        15.64712321447076   19.01967916287327   11.94267293890930
H        15.73076518126991   19.00710104418218   10.17331841270914
H        17.10892560880850   18.47690495281698   11.12778445131316
C        13.31118355211249   14.16838730875028   11.35451176686268
H        12.74775740826445   13.30980743941383   10.99176865135740
H        12.89215220148938   14.48193702537164   12.31051028537400
H        14.34084032584661   13.85480944604786   11.51244993060288
C         9.30568542129638   15.10268318314741   11.20822811468035
C         7.53658484856642   13.87934830326578   10.13968091943410
H         6.74642756021392   13.82623106442661    9.40425614741952
C         7.79542611035917   12.79280191244977   10.95963693524215
H         7.20613783444444   11.89196194144075   10.86325090409728
C         8.28960463138317   15.03177110385468   10.26294140379697
H         8.10468140797831   15.89059851544455    9.63368204225609
C         9.56309596400570   14.01074563456758   12.02900709875837
H        10.35516017975417   14.07641693137866   12.75994122204216
C         8.80849171522451   12.85972224029969   11.90293883259783
H         9.00933289442463   12.01124677471302   12.54152856781487

