79
CSD_code = HEFTEU | q = 0 | S = 0 | Stoichiometry = C27H44MnNO4P2 | MND = 6
Mn        3.76213854850817    2.37956411319227   14.80674021519561
P         2.03483846610459    2.33636534931085   13.30949359120174
P         5.51494876747786    1.59470061233640   16.04727512151348
O         2.74301705378116    0.79377175089346   15.64595928591675
O         3.23002696539245   -1.12416410621318   14.62120464755062
C         0.40349369914770    1.58301903555113   13.82587367508478
H         0.68860678790813    0.55895269447507   14.10197493200790
C        -0.14979403888369    2.26024673773602   15.07678174590754
H        -0.63635333007387    3.20220597519803   14.83320891505782
H         0.65932829309517    2.45790101584497   15.77969268370560
H        -0.88317895971443    1.61566544350815   15.55960897284879
C        -0.64820736668293    1.50132382534360   12.72365741286181
H        -1.45223516968050    0.84076218660080   13.04556189994916
H        -0.23355102024253    1.10212296341266   11.79973698493060
H        -1.08385370183380    2.47765440305064   12.52270662503050
C         1.55789744921791    3.81807292935109   12.27815353822464
H         0.64065654255544    3.56940690593785   11.73295157582210
C         2.64105244561963    4.19076009552038   11.27056771499215
H         2.35334916921938    5.10397665607514   10.75154417994079
H         2.78686549743009    3.41567122138219   10.52158519518540
H         3.58405151080372    4.37730706715467   11.77796688509154
C         1.30441036622566    4.99169008762254   13.21994550571907
H         2.20697401190779    5.19996418381101   13.79592100428525
H         0.50200976258024    4.77441454632138   13.91972794752766
H         1.03678401191622    5.88313027195527   12.65498130886709
C         2.57541066164449    1.09665517687798   12.03586009533762
H         2.20484102730778    0.11737744908010   12.35674886485523
H         2.16473580231945    1.32136523284436   11.04951087564960
C         4.10172011542175    1.06536647042001   12.02034258895554
H         4.45124756172164    0.21980488415356   11.40494969145533
H         4.50729115371915    1.98937398087011   11.59027914484865
N         4.57019307671578    0.93278775635499   13.39544215724532
C         6.00379897897043    0.68384227285841   13.50414456898831
H         6.55008496054610    1.58502644779455   13.19947473032613
H         6.30853231703394   -0.14179926235775   12.84002025991043
C         6.31420750791503    0.32248521129610   14.95460416427743
H         7.38852355513594    0.24844230684712   15.13392743041832
H         5.85088172565293   -0.64261653822983   15.18447153934879
C         6.95312442429522    2.67226034146021   16.55396594414155
H         7.58958354500428    2.09023325190977   17.22968774975955
C         6.40036735478309    3.89525408488706   17.27990138365720
H         7.21027732998579    4.55500619989307   17.58693222059241
H         5.83412645522465    3.61173667085776   18.16302525604756
H         5.73397331743816    4.44508359758327   16.61409105195537
C         7.78774374812849    3.11766514522822   15.35703237937168
H         7.16673899969694    3.63971837120083   14.63373958296220
H         8.27849361956159    2.28048307629300   14.86588661327568
H         8.56218630743854    3.80595624328632   15.69256564389848
C         5.15462116056946    0.55045539704143   17.55533233850116
H         4.59509379630204   -0.29508658696670   17.13296923011723
C         4.22811343984719    1.27808737148113   18.52557353835562
H         3.76365538901697    0.56668076700737   19.20717713900783
H         3.44355734181045    1.79412595159370   17.97250289270319
H         4.77295856795815    2.00884665343585   19.11918722874850
C         6.38500677466318   -0.00435601488090   18.26637210064993
H         6.89615084200878    0.77206462227576   18.83139416958908
H         7.08692628833573   -0.45254268287932   17.56531286007190
H         6.07330057870730   -0.77452993941095   18.97072394861816
C         3.12067978176461    3.56799784261022   15.94479913665531
O         2.74332741725871    4.40737195284012   16.65183352158586
C         4.60636421150322    3.74769259338524   14.10640869290825
O         5.13245600780588    4.70469899512989   13.69662524539131
C         2.63156952125901   -0.45214103030255   15.48607329368387
C         1.70083244394687   -1.16547495577649   16.41081836770792
H         1.62322994350943   -2.22839697375077   16.23282211787576
C         1.02249085797663   -0.52418281994854   17.36495482919472
H         1.17200724299409    0.54622802823491   17.44616191105439
C         0.08129574607631   -1.09471947029422   18.31138695367900
C        -0.62433125292106   -0.23595388917815   19.15807142246557
H        -0.45052470899794    0.82914410777116   19.09233951074591
C        -1.53841633801370   -0.72912209870712   20.06850303549425
H        -2.07679807525599   -0.04938697397899   20.71319949624312
C        -1.76402030508631   -2.09314004425261   20.15679427836879
H        -2.47755120779137   -2.48100833598220   20.86890719114759
C        -1.06751143377763   -2.95833547822089   19.32789686545228
H        -1.23814606038135   -4.02330045895507   19.39590882124902
C        -0.15551485385389   -2.46718430850785   18.41463255940298
H         0.38224358168060   -3.15405204715145   17.77895436587244
H         4.10207399032021    0.07732548651463   13.78053743469282

