89
CSD_code = HEFWAS | q = 1 | S = 0 | Stoichiometry = C48H34IrN6(1+) | MND = 6
Ir       11.22912718147869   12.03190355143599   11.19936083613649
C         8.20954598769051   12.11583695444913   11.94651589141343
H         8.18649187557160   11.22066897491871   11.34019312700835
C         7.08848962786499   12.53669426643945   12.63963550717605
H         6.17287681968234   11.97088974474468   12.58621420011570
C         7.17753289117285   13.69290537490518   13.40187840695583
H         6.33157318120932   14.04783743917231   13.96974084532283
C         8.37399822550565   14.38618332965515   13.42121648170200
H         8.46840196489043   15.27810064494749   14.01820536809744
C         9.45498855112650   13.90837291226126   12.68061449938779
C        10.75345948608336   14.59272797756778   12.63876057995689
C        10.92754360911646   15.90688695672788   13.07186685264377
H        10.09020971728528   16.48231997493994   13.43060514737033
C        12.18548507675614   16.47905671716244   13.01842372144980
H        12.33769984902128   17.49487375021300   13.34831730289369
C        13.24281715667892   15.72225505358825   12.53374531060761
H        14.24232060154555   16.12267101235656   12.48651404997538
C        12.98743748297016   14.43266164678101   12.10286860261848
H        13.78053073749479   13.80632065202485   11.71762955568876
C        11.65084464501751   10.88596092880166   14.14689886474704
C        12.14087091963198   11.93796469696394   14.91503948852056
H        12.29611609457965   12.91366329647217   14.48448237521216
C        12.43495121910730   11.68451850972677   16.23787618316802
H        12.81730242507177   12.48143112366396   16.85700456509821
C        12.26067261266886   10.41775097976861   16.79978379081090
H        12.51031997109452   10.26488266596012   17.83783169140301
C        11.78203815460300    9.35925441399883   16.05512418795609
H        11.65681888953080    8.37663779797902   16.48188520984740
C        11.47323331947670    9.61197091297106   14.72722737019228
C        10.80506917764144    7.39760667807741   13.88236065977042
C         9.86785796748739    6.93475689515695   14.79595518979294
H         9.26566322323684    7.63957010867770   15.35000845741375
C         9.71008885222907    5.57168949226888   14.97904240018427
H         8.98043796554964    5.20894944138553   15.68638725897927
C        10.48537607093305    4.67862623727038   14.25841305682594
H        10.35947349047247    3.61713760054839   14.40391120771394
C        11.42386667343880    5.14612944781282   13.35186232843559
H        12.03047285462034    4.45080951110478   12.79261360080482
C        11.59179931707221    6.50592632934031   13.16272765248311
H        12.31976130797473    6.88366522184123   12.46016299357701
C        10.89059546717038    9.54984921095669   12.60548407987233
C        10.40585679814864    9.23126788336155   11.28357203921781
C         9.81503582059110    8.02602837503292   10.90544785714717
H         9.68770929594270    7.22789753560027   11.62010028993739
C         9.37457212235748    7.86085297229377    9.60754247478338
H         8.91842370124436    6.92959949064012    9.30905012490182
C         9.51762837855953    8.89266249709936    8.69352527941001
H         9.17689836773040    8.75978354906993    7.67726280485989
C        10.08450970003841   10.09905193975545    9.07643194898571
H        10.16317255117870   10.88735722324634    8.34116840133454
C        10.53732555432490   10.30844176600945   10.37351374009234
C        13.43752534392939   12.06694344261370    9.28796622206115
C        13.06649995859108   11.48453628205452   10.52436144268965
C        14.02150941717994   10.70762278933044   11.16925236845183
H        13.79030281593163   10.24002244874598   12.11592639222080
C        15.28589636059097   10.52051298723415   10.63110454687302
H        16.00590061466869    9.90931030760420   11.15514835642129
C        15.63601748041743   11.12010544020394    9.43172290112044
H        16.62576098187249   10.98301790805146    9.02424740740149
C        14.71587178940087   11.89720326714444    8.75709807173982
H        14.99549210002268   12.37751837995613    7.83240441012298
C        13.21515606617006   13.50311517513208    6.42970917443508
C        13.47323555646451   12.29960098142316    5.78402186579448
H        13.02042139906398   11.39004278361848    6.14967086972078
C        14.31509909820232   12.28435605048765    4.68681288498369
H        14.52035373489880   11.35189286217603    4.18443219370149
C        14.88748735418594   13.46114208822781    4.23007847849636
H        15.54068070683697   13.44434170728593    3.37173762924777
C        14.62005449931729   14.65877694138645    4.87189004981962
H        15.06332176984383   15.57590535251578    4.51613699749746
C        13.78171353826274   14.68542715370268    5.97307526956346
H        13.56984128106282   15.61322067366125    6.48350576846554
C        12.38736517882939   12.86877922527165    8.70647541403768
C        11.10929915623339   14.19476665135822    7.50082451936288
C        10.52108848098216   15.00220944154570    6.53935370422995
H        11.02192638094422   15.22193636746746    5.60973380245461
C         9.26727656068770   15.50358581494152    6.82330046831341
H         8.77550698066749   16.13853596359104    6.10339779460655
C         8.61614287006591   15.20247115950965    8.02152533185455
H         7.63440084794023   15.61384890044163    8.19922756263161
C         9.19136157549874   14.38992035401126    8.97522240603184
H         8.67435561876717   14.14868106028497    9.88953853273221
C        10.45856260114567   13.87817720650277    8.71227131676014
N         9.36222171125494   12.77408234359432   11.96756564773062
N        11.78035762788096   13.88141437701625   12.14554509234221
N        11.28354830913735   13.05599735736005    9.43367249890078
N        12.32127611534290   13.53596722413186    7.52677684249462
N        11.27657223654710   10.80763970384415   12.83137345120140
N        10.99780294932629    8.79131015939369   13.72538845349005

