63
CSD_code = HEFZEX | q = 0 | S = 0 | Stoichiometry = C24H30O6P2Ru | MND = 6
Ru        5.35941065346588    4.62420876576669    5.37863773277442
P         3.89610219531741    3.40073890348986    4.06943166375727
C         2.30579361183801    4.24982301362761    3.75584996360947
H         2.50351971038214    5.24753622942902    3.36324943640585
H         1.79393258811020    4.35318348380610    4.71418293680489
H         1.68332918643159    3.67793840234557    3.06585199536540
C         3.25482108746776    1.76638461451772    4.62375603750188
H         4.07767109601087    1.06593496383465    4.75788366652653
H         2.55314426990216    1.36921334640749    3.88932313180355
H         2.74949243348583    1.90709494174954    5.57987406752758
C         5.53781777830182    2.06220564382426    2.31629680185318
C         6.10017630826427    1.75436186669909    1.09361347685260
C         5.64322858988915    2.38324239755508   -0.05416715542060
C         4.62650012625202    3.31849989319955    0.02942020360441
C         4.05608503726036    3.62466162463531    1.25346647651121
C         4.50143998270222    2.98894156205288    2.40520046550599
H         5.90754494983550    1.59829114040778    3.22291567739924
H         6.90261432187506    1.03365955946845    1.03269850419246
H         6.08780199838786    2.15157750661993   -1.01060663025831
H         4.27835743250669    3.81809033271958   -0.86328584204453
H         3.27200835232262    4.36435676230807    1.30864676598735
C         6.65541252765601    4.55019498562459    4.03491321798296
O         7.45296030775222    4.36903168513263    3.23348561399496
C         5.89611238516397    6.66109253720765    5.85683133167987
C         5.57879533443717    6.98141725810643    7.24856926139576
H         6.88464115627326    6.98333031043937    5.52735870672475
O         4.47224230770012    7.13725611621499    7.71996779975310
O         6.70308539411971    7.10698558699925    8.00964693380151
C         6.47595084547378    7.39753123815268    9.37770685892585
H         7.45590926527505    7.45325767131244    9.84654287459926
H         5.87088072594783    6.61174210387979    9.83746711129865
H         5.94946416947486    8.34858480437317    9.48286508680642
P         6.82260157668570    3.40059272353008    6.68774871426853
C         4.06332180566181    4.55006489024965    6.72228972626094
C         4.82264871091419    6.66128981110962    4.90052418382326
C         8.41283519318943    4.24985126678667    7.00121039767140
C         7.46385656998675    1.76628550804117    6.13331288946451
C         6.21718894873310    2.98892940114015    8.35196825355436
O         3.26536155752935    4.36889730193028    7.52325963801067
C         5.13990724022297    6.98226795645610    3.50893427169967
H         3.83416328383653    6.98350087830925    5.23013578141212
H         8.21503493718743    5.24753724407871    7.39384466673802
H         8.92471283455925    4.35328253059082    6.04289141505487
H         9.03532838043929    3.67801152336469    7.69120579023840
H         6.64097508591180    1.06584475669001    5.99934954840890
H         8.16561244422553    1.36916626565578    6.86768373967182
H         7.96905632805315    1.90694558966118    5.17711520323703
C         5.18094291674342    2.06207017411520    8.44092351414385
C         6.66248251044236    3.62478875808618    9.50363899994924
O         6.24650244158260    7.13770881593480    3.03743988203546
O         4.01563404154969    7.10705849061815    2.74774588781970
C         4.61857463361655    1.75429978592964    9.66360828874707
H         4.81134341656766    1.59799645116400    7.53434010764317
C         6.09204564970073    3.31871759004612   10.72768628164535
H         7.44648132720871    4.36456394010864    9.44840922211285
C         4.24271303062164    7.39732119336611    1.37962727793475
C         5.07536958719391    2.38340732113307   10.81132336209642
H         3.81629715155495    1.03342830893270    9.72457040230959
H         6.44010624487544    3.81843963802417   11.62035050905954
H         3.26274731276563    7.45263913136403    0.91076468502853
H         4.84806642491886    6.61165550310466    0.92003689294080
H         4.76886292037781    8.34853838339828    1.27429676095084
H         4.63077936387575    2.15182961500773   11.76776953285898

