41
CSD_code = HEGGEI | q = 0 | S = 0 | Stoichiometry = C14H22HgN2S2 | MND = 2
Hg       -2.16373957568931    0.05704584251814   14.34372001530705
S        -1.78747586111098    2.49508755608263   13.10391971420416
S        -4.40244521355854    1.60371650348884   14.20866557289330
N        -0.92089895707874    1.02485293134009   16.62657103776246
N        -3.92680727007686    4.02126063642940   13.27771599226462
C        -0.64725852382546   -1.42693430130045   14.98364969562592
C         0.33923317773543   -0.95084773465031   15.85051547521314
C         1.29902345191322   -1.82680089483068   16.34193393233865
H         2.06145883477795   -1.45591281190320   17.01343240934672
C         1.29188921336927   -3.16218642829535   15.97982744924629
H         2.04544122497011   -3.83103453591282   16.36910285795608
C         0.31595091171157   -3.63373226767795   15.12282559021687
H         0.30041803022588   -4.67439920325923   14.83372345028995
C        -0.65283118402591   -2.76987972625053   14.63079730323922
H        -1.40905890778265   -3.16151639631629   13.96324579407440
C         0.39415884830107    0.50960780688425   16.23763816675928
H         1.12442968905143    0.65216690398397   17.05104243669108
H         0.73465811410972    1.08653846388178   15.36949991363669
C        -0.88592971528885    2.47662966451698   16.73628176094113
H        -0.15680883902952    2.81273688690155   17.48759441930883
H        -1.87334665371545    2.83704624895323   17.02130986021859
H        -0.62405861336429    2.90892181293512   15.77147811797052
C        -1.31986193853914    0.44299423673839   17.90204944080554
H        -1.32497475456032   -0.64275706671383   17.81956120949375
H        -2.32350632301651    0.77990237197073   18.15554488505151
H        -0.63275273448268    0.73417890030825   18.70998769633150
C        -3.41171431085034    2.81190014381847   13.50374310156512
C        -3.12176037981622    5.06532852872629   12.67336396780411
H        -3.54544267128134    6.02858737876823   12.96623452509882
H        -2.10896964842677    4.98909570304899   13.07998169986863
C        -3.05434471517277    4.96065477024611   11.15249646512281
H        -2.64536654317917    3.99542779649521   10.86652023439037
H        -2.40457260804455    5.74011044077433   10.76381176918807
H        -4.03919890300672    5.07247127971901   10.70722099246428
C        -5.31791372891747    4.30488504310032   13.57278735018572
H        -5.57994069919922    3.79271325411852   14.50345109064104
H        -5.41599581230291    5.38186406788601   13.72711088552873
C        -6.26438878267003    3.84416515140758   12.46768978688307
H        -6.05495600999242    4.35805012439776   11.53322177065999
H        -7.29040344520260    4.05301833010476   12.75866535589362
H        -6.15993817299148    2.77374258754627   12.31176680750235

