45
CSD_code = HEGJAG | q = 0 | S = 0 | Stoichiometry = C18H14CdN4O8 | MND = 6
Cd        4.54181091374015    0.92343075261521    4.60882342059380
N         3.56120426407550    0.22971829564146    2.74523209203796
C         2.46357430314838    0.91176342366905    2.70437114247176
C         1.34807516416308    0.62843704170044    1.78261091795091
N         1.60588205587131   -0.45054662523882    0.95606262895307
C         2.75387245368787   -1.19436169661035    0.98101151317907
C         3.75721181514085   -0.83751590147113    1.90732405641799
C         4.94437335104270   -1.57607339448031    1.97117587320960
H         5.69571336030373   -1.27674746673722    2.68964603392318
C         5.12251318237032   -2.64942623759708    1.12969532441218
H         6.03284004445447   -3.22572670835245    1.17676960343787
C         4.13067114383633   -2.99980184291975    0.21228740747330
H         4.28350734149560   -3.84340181309330   -0.44347877667984
C         2.95647129161499   -2.28356029995004    0.13216131087385
H         2.18805369708689   -2.55488948940275   -0.57656008399519
C         2.46284027223931    2.07862661658493    3.69987644226756
O         2.61881235337850    1.71630385489678    4.89785315647944
O         2.48390822849693    3.21750944569285    3.25022192603756
O         0.29813111209244    1.22381177760715    1.72388659745751
O         5.17414544275621    3.13656522391445    3.79878288457857
H         5.63207423667603    3.20430668865927    2.95331337259737
H         4.28533729759998    3.52214645697411    3.65837249805142
H         0.87214932925563   -0.70086711935013    0.30116645862400
N         5.52755137209189    1.62054370178873    6.46937658782910
C         6.62916442121152    0.94448515344431    6.50220720971704
C         7.75197938400070    1.23679508705735    7.41209343884742
N         7.49621550233742    2.31663575705263    8.23802290868643
C         6.34363811497825    3.05360529116507    8.22238434932723
C         5.33358231093990    2.68882939826310    7.30651604137614
C         4.14169733871696    3.42051843129893    7.25219571121280
H         3.38580854687916    3.11605154073433    6.54063870484553
C         3.96524218357918    4.49445183269956    8.09333445397951
H         3.05115700167379    5.06535264864078    8.05382910051319
C         4.96368377578163    4.85255894797496    9.00054969507065
H         4.81215966004764    5.69657649492003    9.65609818548172
C         6.14290472339182    4.14355299896244    9.07071315216840
H         6.91661806969763    4.42107487380402    9.77124042701305
C         6.62766777539195   -0.22317123792965    5.50794203685568
O         6.46820710509401    0.13864739442681    4.31037826881298
O         6.60760657269856   -1.36195694190016    5.95818481614956
O         8.80583388881580    0.64748310722113    7.46190874624882
O         3.91955372293699   -1.29513538799318    5.41141479705091
H         3.45889013647088   -1.37702672424729    6.25403103501635
H         4.81168216775616   -1.67378098788088    5.55114049864746
H         8.23508357097690    2.57340763773999    8.88459403479935

