95
CSD_code = HEGYAW | q = 0 | S = 0 | Stoichiometry = C40H46Cl2N3O3Ta | MND = 6
Ta        5.56314992708826    5.24251097472635    9.55744069153235
Cl        6.12195229414875    4.24346941630933    2.22601077209326
Cl       -0.34530354913340    0.52501413004788   10.26959142945892
O         5.12082999159447    5.08637454716833   11.40982063364736
O         4.20493326865873    3.98364686606468    9.10293737868331
O         5.87939120197585    5.93357514363229    7.81033423086681
N         6.54433033340656    6.81561224133890   10.30269100325320
N         3.27815383037908    6.75180815518345    9.17999531088871
N         7.02271189408515    3.86575476386579    9.36359847612819
C         5.93106850732244    5.73831452652855   12.33728174792784
C         6.25742676791127    7.12078200339220   11.69352770596211
H         7.10604246307966    7.59233179196342   12.19316293411183
C         5.01973548043404    8.04620549499366   11.84906960320668
H         5.03035449389611    8.76720844811901   11.03062758729862
H         4.12851079635052    7.42638156341353   11.74778743053618
C         4.95737489229049    8.80451912489575   13.14477972837954
C         6.02332395940928    9.58558696319116   13.57737274985728
H         6.91917692663255    9.65497161853232   12.97641521932337
C         5.95627678941596   10.28217145056721   14.76993602664772
H         6.79887493416217   10.87673196945333   15.09259974701976
C         4.81261785066101   10.22303667415387   15.54689649782047
H         4.76153412402667   10.76287248485072   16.48070137510945
C         3.73264666035919    9.47502313791338   15.11255468061111
H         2.83065581370071    9.43188280805880   15.70504558642713
C         3.80481566558792    8.77807679093888   13.92082973384574
H         2.95720191523989    8.19354540214231   13.59369163907483
C         7.16769713988046    4.87728232024531   12.60023569280126
C         6.96820260625414    3.50247275706088   12.68089774673755
H         5.97417212047528    3.11405305634157   12.51854041733511
C         8.01222394777283    2.64314758926288   12.96785372185896
H         7.83226761201270    1.57933246278396   13.03002028196821
C         9.28439077389907    3.14482666030443   13.18437629076819
H        10.10524915405892    2.47819029582678   13.40449199852895
C         9.49096198475741    4.51105833207416   13.12856229560449
H        10.47667875399890    4.91564056803476   13.30934018259405
C         8.44113761575829    5.37133789668709   12.85012599142963
H         8.63886016778991    6.43080218245191   12.83893724174182
C         5.25587424126379    5.88987045531339   13.69541396243277
C         3.95364635841816    5.45140278561968   13.88318419448027
H         3.42668216628886    5.01437909062277   13.04724245956872
C         3.33889001394867    5.56922657791167   15.11729209816934
H         2.32291508630619    5.22393605411329   15.24612349821194
C         4.02272428479299    6.12779578875448   16.18161028226690
H         3.54490076936474    6.22335784821208   17.14544747972452
C         5.32736081512816    6.55818637508223   16.00606474558080
H         5.86905877781023    6.99153317965335   16.83378062605600
C         5.94165121203809    6.43569919949912   14.77463407966967
H         6.96148920928021    6.76637327063834   14.65287872178255
C         7.46821684450981    7.71692465093449    9.62571010224442
H         7.57501938773301    7.28976943976836    8.62171888298954
C         8.87003547768242    7.75611156441990   10.25683505996669
H         8.88367034812976    8.36837389689028   11.15600867253620
H         9.57395727496346    8.18881453050920    9.54974247047257
H         9.19569169670965    6.75011093252490   10.50619674693282
C         6.95924133529237    9.15621319747571    9.43711006521665
H         5.97789562407958    9.14955349803117    8.96668019570163
H         7.64525354385895    9.69241144214153    8.78429967474825
H         6.90728586679885    9.69145309237146   10.38209963664160
C         8.40502928268740    4.15946813546281    9.07344624290586
H         9.04125881015120    4.00632652973783    9.95787641765893
H         8.49628060935396    5.19307706244760    8.74697570833792
H         8.77973092774406    3.50982350637525    8.27145150438576
C         6.84167851333980    2.44627684872450    9.56364220648602
H         7.07459148503484    1.89372354386902    8.64159216822486
H         5.81019619716710    2.24086992542202    9.84209462383786
H         7.50051483978569    2.06822266078446   10.35593737962364
C         2.92176440643488    6.85641176093915    7.76903480190836
H         2.66753214952460    5.86509607336772    7.39486753743030
H         3.77566166219868    7.22779590787077    7.20684074703159
H         2.06444688139063    7.52367819613700    7.60751125875844
C         2.12961057037238    6.34026965833802    9.98090117907512
H         1.30522256072382    7.06394699016880    9.92526081587356
H         2.43275885564914    6.22263088445441   11.01947452058166
H         1.76922420945697    5.37726808739205    9.62081301443081
C         3.18044085170683    3.19967779515905    9.35729903876803
C         2.34972111036138    2.72707311436613    8.32864610544512
H         2.56833528077060    3.01187136369829    7.30960820203434
C         1.27380679168362    1.90835232358059    8.60886959388437
H         0.64023757439460    1.54978356193823    7.81235700737362
C         1.00879417427000    1.54665299595014    9.91978779536763
C         1.81714390322732    1.99299491446691   10.95500141523246
H         1.60192320599324    1.69905967644896   11.97090036196896
C         2.89281414051019    2.80884816127612   10.67528709391503
H         3.53980306568973    3.17552016031980   11.45864184040462
C         5.93849019869440    5.55119138355628    6.54843632376216
C         6.28030915715129    6.45789857425807    5.53348585144998
H         6.50502047694587    7.47976981728717    5.80232739753020
C         6.33871436793388    6.05918193646809    4.21277271992796
H         6.60484335242778    6.76441747796787    3.44054336977188
C         6.05272467224529    4.74525250098604    3.88189499617165
C         5.71215500937949    3.82694598868949    4.86395116632328
H         5.49404354325284    2.80568837432739    4.59064281000134
C         5.65706717936865    4.22566554970733    6.18347766878667
H         5.39403471953107    3.52672341905791    6.96476388286229
H         3.57738581974462    7.67129565599803    9.50092979600792

