32
CSD_code = HEGZOI | q = 0 | S = 0 | Stoichiometry = C13H16ClPPd | MND = 7
Pd        2.00372665594344    0.22442777997959    0.92212604117463
Cl        1.53798553134752   -1.00925980203016    2.76370190207915
P         3.57646974167453   -1.28247912567935    0.43149685859935
C         3.17686810631030   -3.04965502048377    0.65798545516517
C         4.33939357602140   -1.26728712571318   -1.24009252590999
C         4.99758301721323   -0.99063037105025    1.53266729056950
C         6.11339413274234   -1.81956053425153    1.56085767813757
C         7.16445278037201   -1.53595442840671    2.41393415270470
C         7.11063205101130   -0.42512694055938    3.24036126407508
C         6.00273998468376    0.40630172315450    3.21506090260595
C         4.95005880452553    0.12518775817676    2.36327047423809
C         0.72139419930739    1.15428081478785   -0.94799649244349
C         1.97588308695981    1.80599555395801   -0.62450637099434
C         1.82910900992182    2.45016251371327    0.62604483293291
C         0.63054364836790    1.96810476300338    1.18607509895588
C        -0.09293536435965    1.24317186135960    0.16017462319482
H         4.04146633530909   -3.67636840103091    0.44397783715817
H         2.35738218609005   -3.30872842612392   -0.01320971719015
H         2.84674712888498   -3.19331885362207    1.68567508236148
H         4.74602083450025   -0.27729993227312   -1.44104085042854
H         3.57264173767224   -1.49277646933446   -1.98070787896548
H         5.13661426672872   -2.00634560396064   -1.30346064573363
H         6.16279895028795   -2.68899114479391    0.92064818996695
H         8.02805690042254   -2.18445902009081    2.43700243618336
H         7.93237702266126   -0.21005515716080    3.90712325845073
H         5.95971941377615    1.26939448389357    3.86246048951362
H         4.05967938587812    0.76649884975962    2.34402693257276
H         0.47657097206660    0.72390930068384   -1.90734333061409
H         2.74759450922619    2.02480924625953   -1.35155714099933
H         2.52647402001288    3.14230939907025    1.08048212078092
H         0.18577674532914    2.30930321143269    2.11312053822300
H        -1.11041937086203    0.89373909736612    0.25354149363068

