83
CSD_code = HEGZEA | q = 0 | S = 0 | Stoichiometry = C41H36N2P2PdS | MND = 4
Pd        5.52668312220274    4.15725423154905    4.18902197214061
P         3.74021482446624    5.35473912192562    4.82138482251629
P         5.09894858420439    2.36808456498551    5.60705117852033
S         7.65997633744386    3.24281820736871    3.55704409987874
N         8.21676637851675    4.62136024904442    5.93950179049442
N         4.27150163236415    3.67193997363066    1.93058241450573
C         7.95771000301651    4.06252821313006    4.95685688687689
C         5.95803997451875    5.69024261755754    2.96599167350179
C         6.81285088950427    6.71129367545082    3.36635173546672
H         7.26144593722354    6.69501569584244    4.35651365913200
C         7.12106317050038    7.75565477694152    2.50890595052731
H         7.78969020499353    8.53871914256549    2.83837232326499
C         5.72509851578601    6.80296430387924    0.81712917025528
H         5.29751528860947    6.82636386743605   -0.17659366705674
C         6.57327982434140    7.80480824760622    1.23403059920507
H         6.81507050918827    8.62354831208811    0.57166929718732
C         5.41173597566228    5.73773536003958    1.66944763130268
C         3.41256400118288    2.66355850812903    1.52918597767036
C         2.68842945894193    2.01801448123946    2.53447940855509
H         2.82451607824239    2.36591656285297    3.55263235912266
C         1.84759778112852    0.96881835828031    2.23402187731263
H         1.29040131886925    0.47826429456349    3.01959749504988
C         1.73347384938349    0.52848150946316    0.92364271480069
H         1.08663013779056   -0.30293828237138    0.68641455197599
C         2.46517426140256    1.14627414823362   -0.07692332648213
H         2.38887645570781    0.79216079984711   -1.09505055817171
C         3.29783893663391    2.21060431990878    0.21459832202735
H         3.88877416482285    2.66945213055455   -0.56492263973585
C         2.84503058633433    6.31089605446464    3.56919718357626
C         1.81616508650741    5.74186289321419    2.82503011731331
H         1.46686832721327    4.74503440124657    3.05312628694784
C         1.24737792578423    6.44264105014182    1.77689034495333
H         0.44938423681913    5.99359286058991    1.20342269117515
C         1.70583389836077    7.70928878303304    1.45536126597768
H         1.26332327780780    8.25145105688439    0.63283684574998
C         2.74001164857307    8.27544910484109    2.18344645217769
H         3.10871541452995    9.25785164704662    1.92829780272934
C         3.31294870734073    7.57860555804377    3.22961426132489
H         4.13476706484743    8.00947665432911    3.78572062306437
C         4.23888982376435    6.57139701973941    6.07200025273820
C         3.39848318999097    7.59972716504924    6.48909743611968
H         2.42869739450812    7.72523554388736    6.02547265081192
C         3.81551120437830    8.46474606313021    7.48347815466398
H         3.16688794082172    9.26736090694384    7.80355065202296
C         5.06230772756902    8.30438471253160    8.07015876827514
H         5.38077942349146    8.98513570992695    8.84594341130840
C         5.89751170897994    7.27768944211605    7.66194670284552
H         6.86955541170578    7.14827232349577    8.11314575176242
C         5.48859506132275    6.41130988294926    6.66297814671741
H         6.14800873009554    5.60288044191558    6.33634059735810
C         2.40064201622496    4.47181250693304    5.74348351417438
H         1.68609436233101    5.23596342800261    6.07004042125591
H         1.87992428436335    3.78338120413198    5.07364637992413
C         2.95061544494924    3.71732906082844    6.95634568227448
H         2.13680929745647    3.57236443620009    7.67446226409639
H         3.70861186564399    4.33835621955705    7.44520374515565
C         3.53389979371756    2.34240752464617    6.62160918651671
H         2.79565440503148    1.76247328311044    6.05806694606306
H         3.74544117394561    1.80668740118670    7.55217618457421
C         6.39098982411837    2.09189520582371    6.85486970168463
C         6.41038737654066    2.84187765739164    8.02710441225756
H         5.61140348380036    3.53999170547726    8.23788195512416
C         4.50555048838363    4.70779808344818    1.21946769964738
H         4.00348325727194    4.87623742198390    0.25825923490209
C         7.45889909703615    2.70988437306069    8.91665345952814
H         7.47040506870248    3.29695575093081    9.82351228035438
C         8.50200935852805    1.84268488400074    8.63779315319433
H         9.32670094571351    1.75019159758422    9.32897822723332
C         8.49628880135615    1.10837795936550    7.46410965449066
H         9.31672326612175    0.44363896801309    7.23635816021704
C         7.44938609310315    1.23416715135438    6.57059583278725
H         7.45581611853117    0.67750928140577    5.64295180753299
C         4.99814221637273    0.74292660871339    4.79327196240438
C         4.67974746879505   -0.41720239644374    5.49338032255040
H         4.51305412627919   -0.37685227222531    6.56106947600401
C         4.59114175001740   -1.62094963017462    4.82028143157555
H         4.34559000735272   -2.52280672442619    5.36263374634052
C         4.81907629602672   -1.67543533478085    3.45318584448097
H         4.74559095809580   -2.62001341334567    2.93426025911526
C         5.14726397906617   -0.52524101213490    2.75663827251994
H         5.32982965430063   -0.56662909063848    1.69307787258927
C         5.23753262750704    0.68251601623671    3.42530446503914
H         5.50197368597543    1.59223547751210    2.89323232484331

