49
CSD_code = HEHGIK | q = 0 | S = 0 | Stoichiometry = C20H21ClN2O4Pt | MND = 6
Pt        1.74925849732612   -0.34018322870011    4.17214554665875
Cl        0.06463654790147    1.23494556215802    4.83573558803965
N         1.71072720914586   -0.92790119972346    6.33785065709591
N         3.08085695736973    1.06960101291214    5.16282232856683
C         3.72997091057795    2.04073318388177    4.54477118036604
C         4.28689018508522    3.11069878434715    5.26973147227515
C         4.15551496953512    3.16623046445203    6.63174234466045
C         3.45819992298471    2.14144262964278    7.29493232774651
C         3.24833902273743    2.12265558206788    8.70180186000293
C         2.54074091390081    1.12778376077296    9.29046531373398
C         1.99130167032028    0.06709503034264    8.51874960858743
C         1.22835323656402   -0.97795189559097    9.06805039365410
C         0.73714026587281   -1.95559378925868    8.24259544021147
C         1.00147973971256   -1.90939042342541    6.86239493158272
C         2.19478236563664    0.04640496204690    7.12368471697334
C         2.93383585655632    1.10288435822233    6.49921252249502
C         0.49023801557897   -2.95863192330830    5.93977454260602
C         3.83358625756399    1.99193397254996    3.06412950710769
C         1.14820307562400   -0.12906585289562    2.19852875153810
C         0.39531201845397   -1.19628794835662    2.81667954711808
C         2.07162580616823   -0.47527572621242    1.06229916796161
O         3.27385662379103   -0.49975349339697    1.10283092553852
O         1.36189050355598   -0.65992259244604   -0.05611555661070
C         2.10302762100429   -1.08939805102304   -1.19118756533697
C         0.60478758296607   -2.57616108680788    2.33632502441231
O         1.46887241623487   -2.94957769744609    1.57900089700841
O        -0.34124646849447   -3.41080544534424    2.81985019476721
C        -0.23785399964262   -4.76383720613683    2.40528637797456
H         2.86454619423759   -1.31131837891235    3.82862205993472
H         4.80686380586180    3.88873788176614    4.73269398682142
H         4.56907325789359    3.98574430163511    7.20115596038751
H         3.65858533877540    2.93220691284831    9.28726548125334
H         2.37113262130365    1.12350410600380   10.35708109114528
H         1.03573029670326   -0.99575578821405   10.13094594973125
H         0.14277959088705   -2.76522987538596    8.63694636191849
H         0.29770821380847   -3.89054554637359    6.46483399381075
H         1.21163169110050   -3.11978061634314    5.13813367169292
H        -0.43950807184508   -2.62049324670365    5.48084482078759
H         3.88211695127676    0.95805794954544    2.71584614942538
H         4.69902198973131    2.54625558263570    2.71101126062030
H         2.93870594859177    2.44250738701876    2.63232097062703
H         0.61402182497917    0.80800390936112    2.02828026990906
H        -0.62669485662513   -0.99849570480902    3.14230705892538
H         1.40339360597268   -1.10796147359286   -2.02282121373815
H         2.50792143693796   -2.08486625933500   -1.00224970189310
H         2.92591160477368   -0.40003689699535   -1.39045596154246
H        -1.05873530075049   -5.29233065941806    2.88288577551065
H         0.72217425912626   -5.18317002868485    2.71337879041189
H        -0.31660812677962   -4.83530529937273    1.31868517752885

