33
CSD_code = HEHGOT | q = 0 | S = 0 | Stoichiometry = C11H12AuCl3N6 | MND = 4
Au        3.97881253389554    2.63008867273508    6.88037946775096
Cl        3.24673461444132    3.24325367392606    4.79046036333630
Cl        5.67646709079885    1.43685807204628    6.03849873238839
Cl        4.42442103831121    1.95184380040841    9.02137643271442
C         2.41717491505216    3.63475507925944    7.61985482167423
N         2.49920490520335    4.67413682289487    8.46055596835244
C         1.24456869897432    5.15375724345123    8.72033222889160
C         0.37734668736125    4.37900569889283    8.02484346069958
N         1.12175208616580    3.45649253588037    7.34640728006948
C         0.59886789299333    2.38755526403487    6.51114707045385
N         1.06592274126390    1.12812837916502    6.99241845861995
N         0.72346114071855    0.72702444199667    8.22283129069373
C         1.40582585868887   -0.37403906402840    8.44434701082233
C         2.21470664898104   -0.70081622660305    7.34287158188771
C         1.98266961788220    0.29669303416099    6.43110892112586
C         3.74495395901493    5.17014694900937    9.00976924482014
N         4.59416800464084    5.67290422195902    7.97168342675229
N         5.15669969580715    4.82072529808143    7.11114873428251
C         5.85227362630296    5.54421537272510    6.26074530945951
C         5.74507110387296    6.90649379518202    6.57560548850032
C         4.92351602909679    6.94952737123350    7.67480142729511
H         1.07015663588384    5.98262731820292    9.37467988402113
H        -0.69054900419770    4.41111198334509    7.96317214028731
H        -0.49416750221906    2.43332686979767    6.56593405687556
H         0.95150897508002    2.53508435573773    5.48234834598770
H         1.29994596166433   -0.89674728856312    9.37363333505800
H         2.87473631774348   -1.53664771665029    7.24156870757704
H         2.34507165095871    0.44664031056127    5.43424075384891
H         3.52669445631699    5.96555558484452    9.72591840280774
H         4.24862495506507    4.32308064036795    9.50206526729188
H         6.39660244747937    5.07062936783481    5.46903498510308
H         6.20349836919040    7.72921360438917    6.06827026325083
H         4.56785784756937    7.77387453371873    8.25954713730013

