37
CSD_code = HEHJOW | q = -1 | S = 0 | Stoichiometry = C20H12CoS4(1-) | MND = 4
Co       -2.35918018323570    0.00119748126908    9.30206671823738
S        -1.88292493691525   -0.10069774821517    7.17596201859753
S        -0.32340622359047    0.65044197573508    9.74007322273575
C        -0.22556497779440    0.38675137660411    7.03503488240702
C         0.40104791545391    0.44495864046096    5.80837606726623
H        -0.15527689281666    0.17945469668622    4.92103368913274
C         1.74021941615523    0.84382251858974    5.70099706869565
C         2.40517089998492    0.91706733367417    4.45698405359045
H         1.85528533689164    0.65349180395900    3.56351803137502
C         3.70999448386481    1.31166148398794    4.37854144065829
H         4.20927039747083    1.36539827449788    3.42035352172353
C         4.41884883832054    1.65306223097785    5.54402486347367
H         5.45194673678896    1.96368413820817    5.46347254487083
C         3.80818715136109    1.59291837226825    6.76381983650429
H         4.34887209538233    1.85463782358687    7.66343069803692
C         2.45960163279360    1.19042632998404    6.88383365291193
C         1.80895579008086    1.12317373758344    8.12323488335807
H         2.34177077789355    1.38245365318812    9.02669450862472
C         0.49010147119464    0.73136195658535    8.21167038130062
S        -2.83456135336850    0.10020506922768   11.42848768277623
S        -4.39405511543836   -0.65108081310630    8.86436525301396
C        -4.49203099400406   -0.38688527066997   11.56935958086466
C        -5.11869683382391   -0.44492072876412   12.79600098569160
H        -4.56237117239016   -0.17941943195276   13.68334298032021
C        -6.45787327613553   -0.84376933564172   12.90338061642620
C        -7.12283045009692   -0.91698849676317   14.14739191594306
H        -6.57294997107837   -0.65339403972819   15.04085415381932
C        -8.42765081382047   -1.31159076384954   14.22583601636785
H        -8.92693270918891   -1.36530139955617   15.18402127136402
C        -9.13649380267551   -1.65303273231555   13.06035798218444
H       -10.16958858809571   -1.96366282198817   13.14091179225561
C        -8.52582320478197   -1.59292566405333   11.84056659802781
H        -9.06649184261019   -1.85469726473631   10.94096283184656
C        -7.17724116808030   -1.19042386722668   11.72054978723687
C        -6.52657628819479   -1.12323591705770   10.48115468708129
H        -7.05936739553493   -1.38259927742456    9.57770539958558
C        -5.20768474996756   -0.73154332402608   10.39272838169386

