34
CSD_code = HEHKIQ | q = 0 | S = 0 | Stoichiometry = C15H15HgNO2 | MND = 2
Hg        0.24457817964056    6.29126464058829    1.66849499911017
O         2.04798600688071    7.92834256902674    1.52950701383969
O         0.00390706022452    8.65100885032659    1.88067960260253
N         3.98257423194924    9.70214048570468    1.21362420050545
H         3.69113691456848    8.73447071500851    1.26591615627963
H         4.95784097290744    9.93664338188615    1.26231175910704
C         1.23013592044343    8.87714169401047    1.72203686295653
C         1.70780101407419   10.27621605745799    1.78341493384764
C         3.05910749954243   10.62578939505248    1.57539754172931
C         3.41985533995312   11.97581397511383    1.70264401344176
H         4.45569299067077   12.24771148432417    1.55282764695323
C         2.48637205025442   12.93833411666790    2.00750050170004
H         2.79371919383892   13.97031172310859    2.09964037178128
C         1.15304296219994   12.59150632958574    2.19845460007968
H         0.42226058897329   13.34916705774720    2.43601024968672
C         0.77787897219724   11.27155407993232    2.08706913199755
H        -0.24791600636323   10.97141206639341    2.23870507461241
C        -0.88199540075556    4.39043565545680    1.76511267441236
C        -2.27633498143948    4.40646911124906    1.80675386892652
C        -2.94567662816233    3.18674353339762    1.87972153294559
H        -4.02589496294609    3.18879859639325    1.91166599284852
C        -2.26259338278350    1.98750910716161    1.91193558639259
H        -2.81279618930834    1.05945462015516    1.96924125173423
C        -0.87649824640992    1.96685859554581    1.87166962586148
C        -0.19881709709485    3.18038433099473    1.79702378947172
H         0.88370584389645    3.15813137492090    1.76525772579105
C        -3.08900268577043    5.66796408121607    1.77118589275557
H        -3.70216587543182    5.69283499967876    0.87066374439546
H        -2.45763182559531    6.56289066799932    1.78269318870456
H        -3.75718053750170    5.70928256415309    2.63016252218294
C        -0.10693030780986    0.68199781897863    1.90105714980914
H         0.44065738543554    0.54812508056247    0.96879214619227
H        -0.77273689490801   -0.16630215466136    2.03556491150029
H         0.61761789462989    0.68989339486348    2.71376373584545

