76
CSD_code = HEHKIO | q = 0 | S = 0 | Stoichiometry = C21H48FeO2P4 | MND = 6
Fe        6.99306991436075    2.74171192196342    0.41460583217621
P         6.61899703981807    1.88897117620105    2.40341632756369
P         9.04260042587709    2.02170829027990    0.62863228799950
P         7.49090172506155    4.85015218964706    0.44238289306544
P         4.98855228114495    3.39694801211267   -0.09428724566803
O         6.79204917250523    1.18702659351781   -0.88605744118565
O         7.15258541108599    2.72748701237449   -2.53076857306486
C         8.10714071103626    0.90812369696831    2.94524826078520
C         8.90282551472764    0.52343863267059    1.70675338049281
C         6.03877480144879    5.89455189802729   -0.06071071255700
C         5.14750887936778    5.03175102492816   -0.93825747982608
C         5.33320180807569    0.56009334517202    2.56733298841204
C         5.59675946278871   -0.61238014765751    1.63083114812560
C         6.30580015967313    2.86454087454865    3.95441907465371
C         6.12961415952483    2.11798640391861    5.27151984719421
C         9.97315729284178    1.26806243259975   -0.77669595184572
C        10.46642217856884    2.29190025267666   -1.79035842154148
C        10.35026932324775    2.96561471828869    1.54662974415351
C        11.72595987985761    2.32621472977064    1.68424153481367
C         8.79729979702994    5.56495480728365   -0.66807685854252
C         8.42687599695393    5.59570868235156   -2.14595413636371
C         7.90490419620380    5.68240376469741    2.05436996133823
C         8.13213065553263    7.18949646725784    2.07889595149512
C         3.92088072472917    2.54368770204090   -1.33333125916569
C         3.44570004316491    1.17436203853916   -0.86950165693284
C         3.79353424928817    3.81336148675993    1.26484146879680
C         2.42897166657565    4.37710875160181    0.89270557348899
C         7.02115322932209    2.25636798870389   -1.43789949250449
H         8.71313892125977    1.54807846110977    3.59480694745262
H         7.80392419806721    0.02670061857690    3.51744598654106
H         8.35382646971919   -0.21354700653841    1.11226675801342
H         9.88243420337300    0.10702906489459    1.95922767334472
H         5.50111568718473    6.18454736192693    0.84798499227438
H         6.36666649309190    6.80275545801895   -0.57304193620100
H         5.63632290513291    4.82865480715111   -1.89605129166508
H         4.17473521322203    5.49323463143763   -1.13165334004056
H         5.29402675689515    0.21590773715454    3.60419826929393
H         4.37105111797156    1.01515947514620    2.31913549102435
H         4.70218255356589   -1.22447861520610    1.52510509341489
H         5.88813962248963   -0.24921161509994    0.64819129391709
H         6.39333825319931   -1.24724970307230    2.01334494241765
H         7.16866761370982    3.53564032098446    4.02553797398721
H         5.42911860826551    3.48958428717956    3.76119551467918
H         6.14616788371074    2.82931967152616    6.09645618455889
H         5.17840465245820    1.59358925143757    5.30652551372007
H         6.93065975475426    1.40008820002966    5.42949712662458
H        10.80301770918313    0.68168536515009   -0.36789817975776
H         9.27352733837761    0.57827497783165   -1.25878028848821
H        11.14342955303592    3.00985449991401   -1.32984159208028
H        10.99681168085746    1.79408547259888   -2.60081733713235
H         9.62459632185578    2.83162495167729   -2.21558689586941
H        10.44554869845303    3.94133863270286    1.06443213942899
H         9.92146005737011    3.14623563323432    2.53826813946995
H        11.66781742859514    1.34343785984332    2.14607756741839
H        12.21379639794777    2.22571189355528    0.71828421073999
H        12.35588312071765    2.95355342884935    2.31424651123704
H         9.03453306587864    6.57546184490663   -0.32279757020810
H         9.68350980873430    4.93848031996781   -0.54094982594956
H         7.66122121255972    6.34115177400199   -2.34841377539564
H         9.30457336573662    5.84991853781926   -2.73898768790444
H         8.05954660801497    4.62773989716509   -2.47351608907947
H         7.04953036566470    5.42847150243937    2.69044484648039
H         8.77442941935469    5.16556840003232    2.46865547192808
H         8.14693748013415    7.53690875290043    3.11131296250876
H         9.08413294370035    7.45755049042963    1.62807851017221
H         7.33895627918452    7.71804159606569    1.55623207057452
H         3.07675994003712    3.20276128697767   -1.56356463779135
H         4.52716539441728    2.44191336884917   -2.23867587810893
H         2.86975044935816    1.24877426330818    0.05170100334652
H         2.81895401288438    0.71080236918315   -1.63009819131086
H         4.30349625433173    0.53153943414831   -0.69167230301507
H         3.66815308085408    2.89859884272508    1.85058255397855
H         4.33527261542328    4.51943881853741    1.90389151394638
H         2.51864379236093    5.28257761357132    0.29730911074718
H         1.84167658511273    3.65218161035079    0.33476030477897
H         1.87900741198349    4.62715940736172    1.79962309661902

