57
CSD_code = HEHPOB | q = 1 | S = 0 | Stoichiometry = C23H23FeO10(1+) | MND = 8
Fe        1.69106087176061    0.08723846426075    5.43882613827185
C         1.12224327005262   -1.39913057133251    4.58020125221246
O         0.77099442528507   -2.37843025254379    4.12574276267823
C         3.36608339431829   -0.42511667010479    5.76584813910554
O         4.41903423554509   -0.79521456213069    5.96727701341939
C         1.29288414343446   -0.48393125243826    7.07489536813786
O         1.05369384622863   -0.91769097822204    8.09710191860904
C         1.39718035196764    1.34843316226868    3.08304275876794
C         2.29990651865406    1.84774316731291    4.01668664708796
H         3.33218992175272    1.99523385966104    3.72579542228093
C         1.90025892036317    2.31178434011314    5.31077713020319
H         2.54266153838314    2.97542921311316    5.87266694630487
C         0.56535668988888    2.10466522313397    5.75067873528904
O         0.20252206639488    2.65850540799864    6.90192999249762
C        -1.04981671950861    2.32662609170437    7.48117815890914
H        -1.12694841006100    2.93783634014455    8.37766424337605
H        -1.08218240167597    1.26892265112459    7.75632267563456
H        -1.87717599496791    2.56172626288437    6.80783012940180
C        -0.17139221507373    1.16627478226375    4.96242250518269
H        -1.16758209182453    0.89984886146268    5.30080854016569
C        -0.06113511355944    1.35165288517638    3.46047015394713
H        -0.49254634250838    2.31250077507734    3.14217761890275
H        -0.61463084183426    0.57305184451279    2.93815903406575
C         1.78395305018601    0.98942365063249    1.73368246106865
C         2.65229070486864    1.76391343748794    0.95120782205241
C         2.99793991065842    1.34106107276900   -0.32489918366487
H         3.65822465397447    1.96394215523311   -0.90683382420752
C         2.53405960524124    0.14347447164866   -0.85358732534615
C         1.62295722386589   -0.63620895019710   -0.08100826008834
C         1.25828112585685   -0.18961478787288    1.17038897745763
H         0.59868438803221   -0.79372865034823    1.77178005053931
C         3.19562869292010    3.10821451925984    1.37574381750494
H         3.44395467568606    3.70192705895929    0.48105100946114
O         2.26012686706455    3.81084801033002    2.15563120453394
O         3.49240727072262    5.67631234300202    1.91519557241556
C         2.52137799565256    5.13784819079371    2.35202537625498
C         1.42881534374096    5.77056614403133    3.15917442532891
H         1.76230660283702    6.73657659949516    3.52554379278196
H         1.14452321763970    5.12352624297429    3.98429734108005
H         0.56145784933625    5.91615903337896    2.51786395403017
O         4.39821251564268    2.97072550798321    2.13047536568902
O         5.59491066499246    3.03253549833527    0.23656381399277
C         5.56398880158294    3.04518471333450    1.43256705111019
C         6.73448969403350    3.13678333534376    2.35652565385268
H         7.63175927379744    2.79909081678228    1.84694266104796
H         6.56071058400568    2.56180338725647    3.26100327365559
H         6.86178157416640    4.18361631426451    2.63039266285021
O         2.85669624840328   -0.35138268135119   -2.04602538936012
C         3.77788246825068    0.34365995517214   -2.86485337083850
H         3.91482247268182   -0.28375746465859   -3.74318793844691
H         4.73682649116686    0.48257265255901   -2.35959739690045
H         3.38091825118717    1.31523147853082   -3.17035208383739
O         1.20316143457856   -1.77144801637997   -0.66297702212388
C         0.29595418711942   -2.60668855408230    0.02171274180472
H         0.10728094936240   -3.44128607962596   -0.65028250728851
H        -0.64594207782116   -2.08984855898952    0.22855131629945
H         0.72419722554791   -2.98489189150815    0.95488067282282

