120
CSD_code = HEHRUK | q = 0 | S = 0 | Stoichiometry = C64H48CoN4O2P | MND = 5
Co        2.05660057410343    0.69037714991629    8.72184589251879
P         3.28254190201841    2.40633986607486    8.02288285035308
O         9.58632439434092   -3.36868528992602   11.25493307936022
O         2.32778128051201   -3.51727262002458    0.85307432207892
N         3.53757742092552   -0.30545518914976    9.18261369199347
N         1.88046404732336    1.22786272548139   10.49728910145324
N         0.35511408361035    1.27798851729781    8.20929330896270
N         2.17704981759465   -0.27521130030217    7.15369121635099
C         4.04361356000354   -1.11501769509379    8.21467734122164
C         5.20319397611771   -1.73900747446582    8.68128272246501
H         5.79041000217419   -2.45407372180410    8.14049249236512
C         5.42194426292184   -1.28630596583086    9.98466999394362
C         4.34606571832281   -0.36822489461210   10.27532893609168
C         4.00584321257094    0.35065224328972   11.42142529578556
C         2.79888566790646    1.05836158756047   11.50325327586857
C         2.32657259841223    1.71312538187332   12.68389068630315
H         2.84110089787908    1.72540541964600   13.62491110134265
C         1.12945713856446    2.27756693908943   12.38403616420240
H         0.47767495115833    2.82751656488773   13.03447915920561
C         0.87088423334630    2.00015818858007   11.00475776329462
C        -0.21821887999567    2.47053170519542   10.26740030721940
C        -0.44171530502447    2.12116266184268    8.93489668752219
C        -1.53399746323801    2.56315379999441    8.12619226658046
H        -2.29506195188762    3.25121034270914    8.43781314684838
C        -1.40320408070379    1.95762904443547    6.91960692321358
H        -2.04339553726775    2.05806390816908    6.06500026632660
C        -0.22705330151050    1.14491795683628    6.97342070564788
C         0.24589031199346    0.36191017187784    5.90824172617353
C         1.42795445696687   -0.37512067542021    6.02214395188354
C         2.07130226685087   -1.31709596395914    5.13902328487820
C         3.22740966281521   -1.73905329994589    5.79810193497014
H         3.93656783866654   -2.46355933136881    5.45047849723937
C         3.25252033877012   -1.09971967180686    7.03842791776277
C         6.47762536486082   -1.66955421715790   10.85966501523651
H         6.40571361761224   -1.32969858379852   11.88393263466995
C         7.55558011789535   -2.40884320094585   10.51746078328800
H         7.70070363601609   -2.77403545357487    9.51153989606117
C         8.57946169475215   -2.73286408802117   11.47921229470175
H         8.37904108611582   -2.33321981574135   12.49683819253251
C         4.91538429405003    0.41484216713417   12.58333029078786
C         6.06462017551917    1.19636511284824   12.50795845795866
H         6.27797379207065    1.73671008463794   11.59669365791193
C         6.92464359577154    1.27966796783775   13.58545712950898
H         7.81419948585753    1.88885260107291   13.51230173442942
C         6.66606731284101    0.58427911487844   14.76158299194514
C         5.51516385127793   -0.19037346276803   14.83289648962583
H         5.29753089091816   -0.73970552621995   15.73772885479974
C         4.64470175585648   -0.27168466134570   13.76125387495322
H         3.75699874158868   -0.88386061330401   13.82705868803204
C         7.60091734947187    0.68774961637307   15.92728281370856
H         7.41223544273108    1.61108216676393   16.47624070879981
H         8.63558547296319    0.70473879756960   15.59149336805792
H         7.46531922969736   -0.14659844260801   16.61087556503679
C        -1.16746477923804    3.38524464299425   10.92983374543156
C        -0.73723675147262    4.61099005335240   11.43035641523618
H         0.29869733725483    4.89791834015454   11.31688815739260
C        -1.62416121565071    5.46535643214995   12.05521951129758
H        -1.27413848408488    6.41416653116118   12.43682365468077
C        -2.96343904037119    5.12273400977309   12.20361984674514
C        -3.38993730655188    3.89969013993235   11.70296786660803
H        -4.42604401279303    3.61211308394603   11.81092203129018
C        -2.50758214667819    3.04232730000728   11.07311539580769
H        -2.85130070863672    2.08767705145986   10.70278063675223
C        -3.91819776202870    6.06261073820784   12.87353875480435
H        -4.83880241679510    5.55340128017849   13.14721321368256
H        -4.16896959540782    6.88368746026505   12.20124224315234
H        -3.47253917137244    6.49093740189771   13.76931076737952
C        -0.52105117541744    0.37455679343592    4.64908835900412
C         0.04361000488894    0.89582692102428    3.48669075131123
H         1.05429037465371    1.27820006873200    3.50949559729108
C        -0.67363169343269    0.91748166152155    2.30701293766625
H        -0.22109550235098    1.32487028722788    1.41426039663761
C        -1.96872931639408    0.41352902450927    2.24812450486699
C        -2.52925915719099   -0.10388938988782    3.40896942692503
H        -3.53322491149277   -0.50317437329219    3.38416891850594
C        -1.82076803568830   -0.11811980502150    4.59627205501654
H        -2.26650624797511   -0.53171652632635    5.48917560850625
C        -2.72304938222843    0.40847132625529    0.95461751413620
H        -2.57443824993669    1.34265852450372    0.41659120073225
H        -3.78713082185105    0.26268351337654    1.12339342311114
H        -2.36468857703857   -0.40166383284776    0.31878567141080
C         1.58981725009156   -1.79265402198316    3.88507321133294
H         0.55172497596984   -1.59302147443773    3.65434479720493
C         2.31756342340533   -2.47634546111709    2.97571911586101
H         3.36414393781554   -2.69169565586803    3.13321244294987
C         1.74080609011657   -2.92822432362795    1.73423771237808
H         0.66219602313167   -2.68154837234491    1.62639702656924
C         4.21171701859312    3.33980351333500    9.28741656628155
C         5.58025861065511    3.57912248203146    9.21257443865276
H         6.15087223449199    3.24234503348133    8.36043678366547
C         6.22319708071404    4.26217115863241   10.23137603684007
H         7.28736826256742    4.43465483905350   10.16482285064266
C         5.51450937378887    4.71769929925571   11.33003856576173
H         6.02497360848135    5.23338684599776   12.12918263841915
C         4.14579013066357    4.51517440291968   11.39402577918168
H         3.57998373975499    4.87937249933322   12.23846264089011
C         3.50028834475082    3.83578691200646   10.37889254445194
H         2.43215939146034    3.68797155539703   10.42390808972898
C         2.26927903418433    3.67574326094795    7.20058298082534
C         2.07641627138120    4.95442474944622    7.71226282640456
H         2.60283072205581    5.27331442810405    8.59936526249602
C         1.21277696406679    5.83056863409585    7.07816055580830
H         1.06649794311335    6.82047701280163    7.48439558644293
C         0.53448829982888    5.44449391156002    5.93432438713002
H        -0.14449154001070    6.13045053374666    5.45077614673113
C         0.72947350168511    4.17601988778536    5.41321002855245
H         0.20495899146574    3.86493382597861    4.52181597041265
C         1.58746381055098    3.29644807144136    6.04461954929377
H         1.72586839740617    2.30045860779136    5.65381172283738
C         4.56390713155551    1.93427841534730    6.81738805675865
C         4.52791347328391    2.27047754608007    5.46830150963446
H         3.75974733664505    2.92558610497142    5.08711624542442
C         5.49613590623911    1.78697368564729    4.60540105160555
H         5.45593185631184    2.05220438286271    3.55936734561406
C         6.50951879543550    0.96810938846374    5.07394058867507
H         7.25283597879254    0.58304287737847    4.39258673463639
C         6.57298406538615    0.65739082396400    6.42206661560559
H         7.37138933669170    0.03836290948971    6.80263876190311
C         5.60754233801172    1.13492737832818    7.28781368931603
H         5.67428563065772    0.90826502834836    8.34147508419854

