39
CSD_code = HEHSAO | q = 0 | S = 0 | Stoichiometry = C20H10Cl4N2NiO2 | MND = 4
Ni       -0.03876564759194    1.68722679531904    0.52607130352750
O         0.85751151277558    0.68038403182489    1.77778222835719
O         1.61247864253899    2.29834731170635   -0.00572994958126
N        -1.69887327288759    1.04731397622209    1.06056871434888
N        -0.93282674276723    2.72612420137002   -0.72791270821468
Cl       -0.94251171816470   -3.08302827736537    5.84046475829238
Cl        3.00613380721709   -0.42327775470301    3.34554775461883
Cl        3.28650622368448    6.12345585830286   -4.06469547793963
Cl        4.46875885126363    2.63496965025430   -0.14999546601299
C        -1.93504726558701    0.17392913641069    2.00729140171919
C        -0.39470923690047    3.55807130205976   -1.58413830121906
C        -2.74118066120308    1.61126985737504    0.31306960096202
C        -2.31994019179574    2.53743055679711   -0.66874372061449
C        -3.27197279928567    3.16586996007002   -1.47140445537229
C        -4.61370918878481    2.88380806045186   -1.30664431841742
C        -5.02674149540716    1.97449133964807   -0.34473971814636
C        -4.10155367355056    1.34090522887071    0.46121262897729
C         0.42131699042356   -0.13003738070896    2.65160597140920
C         1.33806637045524   -0.79020483093611    3.53398167347862
C         0.92085209144952   -1.67457655914953    4.48944166484681
C        -0.44807829487265   -1.95929081650121    4.62525169467244
C        -1.37417418661578   -1.36271690462986    3.81804047327164
C        -0.96705739852069   -0.44276061651425    2.82587125165119
C         1.93310588461266    3.13516923583454   -0.90437381963954
C         3.31413846550738    3.44485841651351   -1.13160749325335
C         3.71265047058109    4.34246716280269   -2.08270039636448
C         2.75081979544905    4.99275783018279   -2.87360053755326
C         1.41862572544307    4.74043095766425   -2.71046283617693
C         0.98308877973917    3.81512503366112   -1.73554407118355
H        -2.96169742234917   -0.12087340206444    2.20774343924988
H         1.63785969747069   -2.15275136246341    5.13744265429764
H        -2.42324530095101   -1.58747973161262    3.93224552690736
H        -1.04258805332076    4.11503192523937   -2.25579705340134
H         4.76047506227413    4.55210874748326   -2.22681150567362
H         0.68870441131356    5.24469454171043   -3.32452692870961
H        -2.98534531866372    3.87677120234339   -2.22938137970263
H        -5.34202637561865    3.37581300377694   -1.93243267974231
H        -6.07664845582784    1.75813103240612   -0.22219122827068
H        -4.45720008153255    0.64014128034761    1.19910130460136

