30
CSD_code = HEJCAA | q = 0 | S = 0 | Stoichiometry = C12H13ClNO2Rh | MND = 5
Rh        1.52476725741323    0.65693874416431    5.49909484375713
Cl        2.16907641279749    2.73063768242932    5.87681168825739
O        -1.23837085025088    1.43061483616366    6.23800472430785
O         3.46490949092825    0.28467645821530    4.89426786621243
N         3.74685627904608   -1.94390872916750    5.15763732446970
C        -0.17429159563481    1.12003243324211    5.95082023196087
C         0.99069219402336   -1.17430018888549    4.52957978363206
C         1.38884275613356   -1.42798234180208    5.84463443334208
C         2.75124559750076   -1.98714081103769    6.21736386993206
C         4.07951142085564   -0.75240700224824    4.62717952259012
C         4.25476596194399   -3.21240708381758    4.69354241902220
C         5.23917914004471   -0.66089191478034    3.70103263597440
C         5.07979988143671    0.05282832840111    2.51677332179331
C         6.15124772891685    0.21937893611102    1.65890864479359
C         7.39120144418329   -0.30316742568554    1.98814166201157
C         7.56138081304818   -0.98703880771102    3.18105700930714
C         6.49092216477083   -1.16894186787255    4.03762586281621
H        -0.06118686202973   -1.23241980531426    4.27733731948548
H         1.65959253679072   -1.40328762106951    3.70460437766339
H         0.63502843370119   -1.66088544423941    6.59480057973382
H         3.13430695864215   -1.42945271292999    7.08719392059926
H         2.63851076223773   -3.03174377583026    6.52113455171585
H         3.41746522264995   -3.87771970901426    4.47113601582505
H         4.83970963450156   -3.07617617707574    3.78721619519306
H         4.88145992281752   -3.68465451396781    5.45456468256350
H         4.11383246084933    0.47379775854988    2.28083818948472
H         6.02095722972230    0.76647280587881    0.73769810836660
H         8.22935779418624   -0.16687251792463    1.32148518176263
H         8.53264277409115   -1.37541002164492    3.44847252879384
H         6.63238703468310   -1.68026951113677    4.97834250463277

