69
CSD_code = HEJFEK | q = 0 | S = 0 | Stoichiometry = C31H30FN2NiPS3 | MND = 4
Ni        1.61915878618460   13.50037042033654    6.14112864876462
S         3.39836438288287   12.62980147619323    5.05103723817094
P        -0.07287891737366   14.15216705481288    7.34736280722469
S         2.63627387946593   12.43302281513747    7.79680247180004
S        -0.84798785117342   14.64949219895668    2.61550758867921
F         0.83662224006873    5.45828800150132    7.56896987118398
N         4.20280319882260   10.62053463944951    6.60671849252503
N         0.95291761887838   14.35929933040473    4.68064975317031
C        -0.44018309749602   13.10508456434111    8.79078149095673
C         0.49571559637266   15.75164459848058    7.99353525048373
C         3.50162752187992   11.74599199915412    6.49387533712502
C        -0.67098949909867   12.65836446658159   11.13453251813090
H        -0.65526211947373   13.00557383027106   12.15720143409396
C        -1.70536366671163   14.56340721180488    6.66872113883417
C        -0.68126189663550   11.75883439114156    8.51976368727147
H        -0.65401205366574   11.41837084796972    7.48967993255020
C        -0.31533639505436   16.60666058804231    8.73322122578911
H        -1.34013841722328   16.33101525236952    8.94168417706321
C        -0.42125269761206   13.55020159682920   10.10487556000830
H        -0.20128704237112   14.58444317227993   10.32449691612368
C        -2.82511610033867   13.76515291366573    6.87137550209709
H        -2.75879499114696   12.88163716555342    7.49049563921733
C         0.15420782787460   14.42234511932724    3.80972037161901
C         4.89673193093217   10.06199393640230    5.46515921122486
H         4.33594172562712   10.31218615675322    4.56010157556189
H         4.90917028385891    8.97494336904409    5.57587778888839
C        -0.93409288849395   10.87451879456318    9.55007946213135
H        -1.12486814658538    9.83254379236424    9.33902141435844
C         4.27580556005592    9.88268246788347    7.85536586284017
H         3.98347633933020   10.55582611300229    8.66579832570214
H         5.31203175646667    9.57056371233200    8.00922301520358
C        -0.93169533603021   11.32660975905899   10.86066013323182
H        -1.12197921741340   10.63589648738746   11.66856424316969
C         3.36187524973888    8.68399587858353    7.81735617455993
C         6.32083618529636   10.60779077846581    5.34569783805417
H         6.27279241871344   11.69290432392050    5.23850072087000
H         6.87665473284275   10.38453357125726    6.25976441189363
C        -3.00589260937839   16.03296567285303    5.28117846605088
H        -3.07223160852088   16.90820753638098    4.65306252414282
C         1.80055064105251   16.12438600928447    7.68414331974405
H         2.41142137913954   15.45191245255943    7.06453921872412
C        -4.02958158990895   14.10720038490816    6.28209313561207
H        -4.89807701724719   13.48482778930865    6.44135141558709
C         0.19371283264849   17.81257079358157    9.18021239492710
H        -0.43145775153181   18.47876533961650    9.75651437437654
C         3.87416778292199    7.40186952413716    7.66729196035044
H         4.94308490655495    7.25005804199859    7.62317481337230
C         7.04797091093546   10.00871339141570    4.14552468627383
H         6.48920384928751   10.24085094406953    3.23706530928733
H         7.08143871667368    8.92122525521386    4.24711731546611
C        -4.12110277353887   15.23568196283512    5.48504393094608
H        -5.06026063268054   15.49117751801315    5.01764671080476
C         1.98416878077763    8.86455257849860    7.88272858451417
H         1.58193834028782    9.85816474211201    8.00936964679214
C         1.12789606442450    7.78354899440468    7.79682422671977
H         0.05754493727648    7.90692596169697    7.84063000534755
C         1.66615495819519    6.51754369634228    7.64881400299220
C         1.50013548703033   18.17184926168271    8.88539964610592
H         1.88886510566998   19.11615953413055    9.23654711756403
C        -1.80074923774411   15.69926487033604    5.86729771880340
H        -0.92282054390150   16.30822774244329    5.70154820329620
C         2.30369797262661   17.33195124306204    8.13063856907498
H         3.31479239715403   17.62259912978276    7.88812691960237
C         3.03094430333537    6.30769291545407    7.58627561091700
H         3.41656588702876    5.30696543305269    7.47375893318788
C         8.46551042224038   10.55269955890117    4.02212114753018
H         8.96642104936510   10.11845980056493    3.16067317129027
H         9.04588266459475   10.31699674403010    4.91169771779914
H         8.44799747395145   11.63309238156988    3.90068197198413

