114
CSD_code = HEJKIS | q = 0 | S = 0 | Stoichiometry = C56H55CoN2 | MND = 8
Co        4.02963414801081    6.58045439993816    3.37585637994006
N         4.39643656664561    8.15658259989281    1.10244528604779
N         1.76708989360604    7.74174523975343    4.86565948784137
C         4.31173205503799    8.15864546697610    2.36961767595452
C         2.71781344256396    7.33882971883572    4.30176423077383
C         4.66427320003677    5.35144926701776    1.80548350768925
C         3.65663251333286    4.57767732706650    2.43230365257277
C         3.78386181871229    4.28634178567865    3.79399160726576
H         3.02170735791656    3.69291067952657    4.28331323597535
C         4.88711066658075    4.71762720562668    4.54829648127602
C         5.91706871438900    5.40578921526669    3.90058094061432
H         6.82578680264369    5.64725019287077    4.43860249975873
C         5.81223790370684    5.74128482255913    2.54115675452829
C         2.49324537751491    4.02170058244705    1.66160929779090
H         1.64627847043064    3.85304630810488    2.32338541490415
H         2.76844027055099    3.06613683308689    1.21200426513524
H         2.18974557073606    4.69450646988201    0.86253366975214
C         5.00009095771447    4.33264409088397    5.99297943747685
H         5.77838013375831    4.90763775391625    6.48982278041395
H         5.24794888301691    3.27306017177388    6.07582539451676
H         4.05568661750394    4.49844082730536    6.50815856789472
C         6.98115561946207    6.38534104236694    1.84733089545837
H         6.91391632314528    7.47258574080399    1.89275804961257
H         7.01244311008592    6.09584389607646    0.79792071189233
H         7.91237026468558    6.08638381011667    2.32622844414543
C         4.30984425084601    7.17457838957254    0.16263728598190
C         4.50287585738121    5.79704229328329    0.41030446982681
C         4.50452846473943    4.90183414132679   -0.64865347151167
H         4.67585106438633    3.85244529723750   -0.45054540991998
C         4.30971353587728    5.33704129154726   -1.94697194711271
H         4.32833315023622    4.62942208667763   -2.76283354757123
C         4.09225820681015    6.68289393987469   -2.19542733181268
H         3.93735036203207    7.02987997466535   -3.20767451283157
C         4.09580005007871    7.60104684692905   -1.16020378602646
C         3.88178836929182    9.04141211960454   -1.43310014424901
C         2.58974081234161    9.52659382232195   -1.63019543033430
C         2.40599250445956   10.87092208015106   -1.91865010960821
H         1.40363484086047   11.24680375905655   -2.07466189479167
C         3.48100254278491   11.74217013053654   -2.01235781767944
C         4.75843445967454   11.24544261611157   -1.79221299935324
H         5.60410201308990   11.91735542210022   -1.84980648150436
C         4.97382923563236    9.90712316644793   -1.50296360180523
C         1.41585661637192    8.59930133382691   -1.51953596663082
H         1.42885255205583    7.86608809358394   -2.32566696989800
H         0.47964438859660    9.15108495309228   -1.57134132349940
H         1.45638077320157    8.05489898475573   -0.57706108794426
C         3.27812530387580   13.18611080338486   -2.36492127195043
H         3.50988556596108   13.34776387915079   -3.41845397486671
H         3.93465578405237   13.82550026849159   -1.77772611628331
H         2.24766813939668   13.48850466028764   -2.19422927216446
C         6.35813533024382    9.39058931086639   -1.25286004962568
H         6.45258731938987    9.09210910661288   -0.20922665546879
H         7.10273548414339   10.15362140089712   -1.46676189653766
H         6.55972164384048    8.51523869281653   -1.86897070326073
C         4.66003957017448    9.43111621162871    3.02391093405941
C         4.92810041650644    9.50268086533647    4.39008249485698
H         4.86156883801898    8.60077797889028    4.98679456183241
C         5.28559279818404   10.69961370521662    4.97901008064984
H         5.48457933731820   10.73915465890434    6.04073452480451
C         5.39702559799429   11.84727608899566    4.21175445585849
H         5.68096801685928   12.78269003547904    4.67275858988549
C         5.14994493897654   11.78712690987992    2.85019046145947
H         5.24940971640743   12.67637149287035    2.24521593049932
C         4.77809937102315   10.59549326585387    2.26163706083568
H         4.57524956816836   10.54148171993408    1.20324428105451
C         0.63168643691919    8.16111253083338    5.45419688323441
C         0.11162108199083    9.42608478401081    5.14602271655375
C        -1.05588665914086    9.82555517009571    5.78086574227574
H        -1.47552215339879   10.79149715911335    5.54116340023339
C        -1.69204581710482    8.99835383628332    6.69101350806804
H        -2.60301287131574    9.32519063008452    7.17009015153485
C        -1.17186591359932    7.74678724509948    6.98097139727909
H        -1.67564711099781    7.09432206562120    7.67987793216196
C        -0.00924555685107    7.31113514592176    6.36748056218883
C         0.77244780607427   10.30280509455254    4.15310264561786
C         0.76526177649069    9.97237861068051    2.79574985289846
C         1.31414167203309   10.85846356411400    1.88242446438100
H         1.31008844554148   10.60408748158773    0.83281726270486
C         1.86376582832083   12.06655790525411    2.28238435392016
C         1.90377764094725   12.35736403664776    3.63659890952163
H         2.35638657700085   13.28067221655183    3.97043187314179
C         1.37481045407490   11.48894071658567    4.57776442375170
C         0.17361145009423    8.68612591315508    2.29979622931982
H        -0.23634327416790    8.81880137138360    1.30125681017387
H        -0.61428164866007    8.32642186150944    2.95817381152054
H         0.95592046784888    7.92606504231875    2.24771632797279
C         2.37609096800637   13.03411050016200    1.26049827206607
H         3.01729026549991   12.52574914429050    0.54442023258890
H         2.93083654307403   13.84188607958178    1.73087199914012
H         1.54121844039562   13.46825509913952    0.70959775586411
C         1.46094683335599   11.82707584093817    6.03774500964172
H         0.52103550175686   12.24756105678468    6.39554320780585
H         2.24674865341046   12.55905447845297    6.20802652263574
H         1.67566587052195   10.93843878840620    6.62798028639851
C         0.55704778099258    5.96831428003256    6.63703743447917
C         1.33200733417075    5.75588603906235    7.77720008101393
C         1.84299049878313    4.49011952440988    8.02158307656910
H         2.44308643838464    4.32436057084508    8.90604516604257
C         1.60203519151472    3.43326043837668    7.15524625773834
C         0.84291758119493    3.66886748111505    6.01797766929839
H         0.64960176140114    2.85388363468261    5.33287145335556
C         0.32089910835615    4.92353378656465    5.74265190850774
C         1.62923664334572    6.89361868297658    8.70756434265497
H         2.17565419891061    7.67547893773066    8.17986062522540
H         2.22942067357507    6.55743112999271    9.54946568210211
H         0.70866935077450    7.33410038042875    9.08755579608891
C         2.14073327161606    2.06357685570268    7.44299820152611
H         2.99759488039574    2.11434442904759    8.11101508815359
H         2.43852303548390    1.56172086343586    6.52423122723101
H         1.37349292020716    1.45445713908501    7.92221269131240
C        -0.46868756673896    5.15922349000181    4.49007592954216
H        -1.34916621975299    5.76650822841647    4.69287448383055
H        -0.78577169933722    4.21644807785897    4.04977037131922
H         0.14421963560919    5.69199541377886    3.76178994254147

