53
CSD_code = HEJSUK | q = 0 | S = 0 | Stoichiometry = C18H28CdN6 | MND = 6
Cd        5.75679887041601    1.30625095520356   13.70924866850741
N         5.13323405724413    2.49277476227339   12.03153838255911
N         3.65582188488544    0.56417286268199   13.37635401202180
N         4.85475672446101   -0.46171133243876   15.66262777742325
C         5.55150154320038    3.41717841914635   11.16968927462950
C         4.60894147928651    3.63245931113019   10.15893729111102
C         3.55063172038608    2.78266419598627   10.42870661768867
C         3.89488171687358    2.08184603594733   11.59840711957193
C         3.16873657063317    1.11029932960475   12.31586277178279
C         2.89441708348937   -0.38075398220118   14.14074159771180
C         3.84495112078461   -1.25322496994447   14.97047620994203
C         4.26401791192666    0.31998493182957   16.73991096305215
C         5.88853097507881   -1.32517552373870   16.20825109277274
H         6.50657818315580    3.90249175907959   11.29324373206117
H         4.69630945971880    4.32395918371933    9.34188698403272
H         2.64059987269924    2.67288285249293    9.86809894546902
H         2.17091472919381    0.84128710074632   11.94661025971674
H         2.27951925775277   -1.03040141997197   13.49734466032287
H         2.20814819343544    0.15618107276523   14.81068753130418
H         4.36720797299758   -1.93336350981339   14.29132228282982
H         3.25228256793771   -1.86106562025219   15.67897761201284
H         3.73601016578938   -0.32100627211075   17.46449423686287
H         5.05069035286356    0.86242510802053   17.26043723641979
H         3.56680726243537    1.04844187003668   16.33233975981969
H         6.35554709805960   -1.89652930496824   15.40727791613453
H         5.48743165872361   -2.02942043597722   16.95514817910345
H         6.65153831892065   -0.71017147358817   16.68230464648731
N         6.38033350161488    2.49273290499145   15.38700111019281
N         7.85779600238116    0.56421670870591   14.04212621454269
N         6.65885186316868   -0.46171210856633   11.75587125175763
C         5.96208299835295    3.41716765221176   16.24882527827013
C         7.61873324185328    2.08188399812968   15.82007301235299
C         8.34492271974922    1.11041000458990   15.10256415610806
C         8.61916925397659   -0.38076039709810   13.27776938872256
C         7.66864690352081   -1.25323586517571   12.44802614951691
C         7.24959490089979    0.31998726344940   10.67859280399808
C         5.62507065455498   -1.32516656564641   11.21024658669369
C         6.90465276847732    3.63246445062599   17.25956652893904
H         5.00702755187042    3.90251635955490   16.12523861946609
C         7.96293362273620    2.78262239462629   16.98983373555378
H         9.34266462910226    0.84125381167824   15.47193135912471
H         9.23406836600016   -1.03039432571267   13.92117767066402
H         9.30543963417648    0.15614907221196   12.60780761366240
H         7.14638186365081   -1.93337229717964   13.12717537981262
H         8.26132121094241   -1.86107588811246   11.73952736473513
H         7.77759343739044   -0.32100662230184    9.95400542800896
H         6.46292652610538    0.86243855093266   10.15807197037634
H         7.94681326897074    1.04843499949943   11.08616766934396
H         5.15804737395068   -1.89651888576255   12.01121708620341
H         6.02616537889319   -2.02941064880239   10.46334651068384
H         4.86206968542076   -0.71015405890045   10.73619448080481
H         6.81731224324800    4.32400320681989   18.07658788444484
H         8.87297364664439    2.67285037957146   17.55042898466814

