45
CSD_code = HEJWUO | q = 0 | S = 0 | Stoichiometry = C18H22N2O2Pd | MND = 4
Pd        1.33468189175063    0.06911959799951    2.36777790945381
O         1.92961891568220    1.37859365497573    3.78434341640681
O         1.38469070677721   -1.29466290594577    3.85700752502871
N         1.32705016844847    1.56594944609548    0.87120192974808
N         0.77690669550832   -1.38372118210754    0.89706719813947
C         2.31670626614231    2.59448554138431    3.54580381170750
C         1.88554493999943    3.38717349957126    2.45195014459471
C         0.87968281289011    2.83687695059008    1.47749906604284
C         2.62887984422738    1.66335515402503    0.19879573772294
C         3.33138421567172    0.30260634225692    0.13239562069738
C         2.58875955019146   -0.74831783689229   -0.71627671636535
C         1.91020165819877   -1.85754517309957    0.09227907266730
C         0.10421391004329   -2.50467309417889    1.59055326200752
C         1.04577404678350   -3.24204392413601    2.50227173326819
C         1.62201038406922   -2.54476529184913    3.59511398924313
C         2.44947893745086   -3.28994646010279    4.46347141551486
C         2.70230091799662   -4.62413141932923    4.24778095531283
C         2.15349609403384   -5.28206774370608    3.15544343139184
C         1.32798122908666   -4.58214960979829    2.29558961127937
C         2.36443804175341    4.67910059388315    2.29167679881397
C         3.24889368129012    5.23941743114224    3.19227206785254
C         3.66158160635301    4.48698344367490    4.28370081954990
C         3.21350662965246    3.19965505341687    4.45535621389154
H         0.62312574822705    1.29465204372139    0.18174729789815
H         0.08944508969214   -0.97388808988227    0.25785660913327
H        -0.06848546908368    2.62190473824515    1.99793868342176
H         0.69024303705575    3.58776937931673    0.69609149923577
H         3.24940692281773    2.34606305915936    0.78774550991399
H         2.51769866222793    2.08351778118739   -0.81082802023342
H         3.46072714548175   -0.07044268863851    1.16848088150124
H         4.32608060595040    0.46820750353987   -0.28349396432026
H         3.30252555314898   -1.23870812839104   -1.38009101220880
H         1.84840347765725   -0.25833534505464   -1.35647404300997
H         1.56575354433045   -2.63881375140239   -0.60337510717172
H         2.63417440684331   -2.31553854726534    0.77567336215931
H        -0.31361216840169   -3.20781425505931    0.85443595567826
H        -0.71857082200147   -2.07119418463371    2.17884095667812
H         2.87032840913751   -2.77068386977723    5.31085664397262
H         3.34140392256724   -5.16351101106512    4.93261902740358
H         2.36028015649904   -6.32702705051523    2.98183634847980
H         0.88003903174327   -5.09044592609831    1.45060444403733
H         2.02518226209978    5.26133099917316    1.44374500650461
H         3.60714797199017    6.24738599956057    3.04997800446575
H         4.34763599712896    4.91329831302715    5.00186885317684
H         3.52828337088731    2.60648096298212    5.30016804931411

