85
CSD_code = HEJXIF | q = 0 | S = 0 | Stoichiometry = C45H36ClNORu | MND = 9
Ru        2.32035204222826    4.87661264538823    8.00548475172191
Cl       -3.78340913203921   10.40783090252749    9.85735243415851
O         0.77137412703333    5.38170061784085    9.51697232298362
N         1.19619494951579    6.52642217102592    7.72031389912663
C         0.45772162196374    6.40815711396950    8.83547462398947
C        -0.57090237629954    7.36489291144618    9.10793882869168
C        -1.34239528196467    7.30839987509500   10.27708901626131
H        -1.14112342548789    6.51429513652176   10.97948148170437
C        -2.31876503615709    8.23963965455503   10.51200292496436
H        -2.91612548902047    8.21234902545088   11.40919610801902
C        -2.54290212114519    9.24048040827714    9.55784167999856
C        -1.81761736116091    9.31403966434024    8.39683747965323
H        -2.02855114635395   10.08485887809754    7.67235748108609
C        -0.80036596825735    8.37498904786712    8.13895585644047
C        -0.06241118824945    8.36269301190218    6.91691208197937
C        -0.35850198463211    9.33922359212971    5.84870058143868
C        -0.89572833727002    8.91430836315875    4.63925953327847
H        -1.11937897216478    7.86683429710750    4.50400137836739
C        -1.15670220459694    9.82333881078533    3.63069332869981
H        -1.57515351001431    9.48205721383996    2.69510186551896
C        -0.88675221598886   11.16826934301336    3.81980435254417
H        -1.08988154991367   11.87838969983611    3.03182748095200
C        -0.35915184887896   11.60142818206925    5.02469741034807
H        -0.14996793900196   12.65034428747966    5.17791888034800
C        -0.09699242138642   10.69349188888861    6.03453396898427
H         0.32291924309845   11.02935955697725    6.97255085314387
C         0.89973722717131    7.39137732058271    6.73379572029866
C         1.64887225423309    7.16345558669942    5.48260342703355
C         2.33637811594170    8.20192443907071    4.86337102512096
H         2.31414358390282    9.18616670949876    5.30741286964418
C         3.04588850707043    7.98526444433348    3.69732134574505
H         3.57589112465092    8.80066588460062    3.22797205191285
C         3.07228822896571    6.71835296634730    3.13544466662950
H         3.62775112235556    6.54043350081060    2.22587712465462
C         2.37208643925992    5.68577111799384    3.72989041041328
H         2.36602525435417    4.70521260957210    3.27480024410671
C         1.65318053410040    5.87973021028921    4.90804726450753
C         0.79391235596184    4.77740655967234    5.41542228782910
C        -0.15760512980236    4.24415311484200    4.42086293028304
C        -0.68812063998935    5.07526945103317    3.43355871817533
H        -0.38860594485059    6.11253687912483    3.39242685366973
C        -1.59065633839804    4.59026004055901    2.50668041527834
H        -1.99481004218270    5.25386650871024    1.75528467928266
C        -1.97690280022596    3.26094854161321    2.53704225614009
H        -2.68277455373788    2.88202390996108    1.81257299398031
C        -1.44205242816742    2.42011580761617    3.49855684913471
H        -1.72516738794862    1.37747512091337    3.52179429643277
C        -0.54051434682503    2.90349737429740    4.42735759833067
H        -0.11731441456401    2.23364279932415    5.15916508829160
C         0.87955911316475    4.31017052242539    6.67159777694763
C        -0.11773639605077    3.46909617326053    7.32389759308580
C         0.19107389171405    2.21531445068708    7.85832413299516
H         1.17630736230643    1.80127349990960    7.69160823637583
C        -0.75320328300440    1.49780267157607    8.56563333486676
H        -0.50038989939840    0.52683654170039    8.96808992084505
C        -2.02077641722727    2.02010000161813    8.76576022027919
H        -2.75476935015158    1.46185759699447    9.32816279445685
C        -2.34226176453110    3.26108392656444    8.24007446481118
H        -3.32976981165666    3.67265558928635    8.39222071474356
C        -1.40688991219071    3.97744853497434    7.52069693957086
H        -1.65684821310460    4.94685183047257    7.10999305063568
C         4.90752359419463    6.68339100866357    6.52839702386385
H         5.99149477940310    6.74835588358914    6.64188893999269
H         4.47881268134449    7.63345305588336    6.84147103023822
H         4.67877188799407    6.52880541043582    5.47715469255149
C         4.38716870329125    5.55439817877920    7.36718756385700
C         4.12187819289087    4.28909609885048    6.79638501048980
H         4.27851546312269    4.13634191896774    5.73361499804621
C         3.77858726374604    3.18383678999228    7.62771302123714
H         3.67441519139693    2.19849539955216    7.18281338603540
C         3.65614766227785    3.34507078919532    9.01885114649602
C         3.95230084833397    4.62029270654746    9.58382898596204
H         3.93456318942431    4.73859929318542   10.66055242369024
C         4.33156456220181    5.69483039435333    8.78304361944209
H         4.62215337920456    6.63695029227465    9.23388862228212
C         3.33859828951611    2.16927912980696    9.91397732432146
H         3.01814068915007    1.33495400001905    9.27918949173191
C         2.19746584322616    2.50172025406768   10.87876459870881
H         2.53709969573899    3.16264546173563   11.67265940373156
H         1.81597775870668    1.59211798389203   11.33658337983144
H         1.38307900505589    2.99427936004722   10.34697015846460
C         4.59619610793578    1.73235826515342   10.67239604409378
H         5.39026154574616    1.46493421077848    9.97747865092776
H         4.37439572238020    0.86801276571287   11.29375017533472
H         4.95737942871800    2.53263281200725   11.31481940775707

