83
CSD_code = HEJYAZ | q = 0 | S = 0 | Stoichiometry = C22H52FeN8 | MND = 6
Fe        7.37344610760391    3.97847479879649    4.49609362307471
N         8.78476671344245    4.80024900019605    2.98908928070024
C         9.74799375374486    3.77945983150125    2.60060795081069
H        10.36546461640935    3.53906234093406    3.46073593528403
H        10.39279239739536    4.12142467872664    1.77764106329157
H         9.22057378918436    2.88127409411401    2.30007796262259
C         7.91959507397916    5.12451567871456    1.85381687856882
C         6.61410245328917    5.77129711677205    2.30910341977908
N         5.83685564815043    4.87187082823140    3.16315943190189
C         4.88269204435310    5.63919366688116    3.95158626561188
H         4.32759367962754    4.95517805368935    4.58637819189773
H         5.41707214409899    6.33523358652587    4.58802395477124
H         4.17774765891633    6.19067677390768    3.31215026247310
C         5.09861608553849    3.90387819766002    2.36497007806042
H         4.61209330777174    3.19562131694496    3.03075104311083
H         5.77610967574814    3.34944935889662    1.72556395263166
H         4.33638689547500    4.39523589314916    1.74151887634666
H         6.84722195577853    6.66412981631668    2.89061464563232
H         6.03029756494448    6.08141991122282    1.42674912151677
H         8.43301174967248    5.79368210996077    1.14382633283946
H         7.68914427883149    4.19365109093192    1.33407580534043
C         9.51721447651382    5.97477922435318    3.43995623171965
H         8.82858491734535    6.77210337530953    3.69561767502093
H        10.21440175704748    6.33436632577136    2.66809448794091
H        10.07797871669935    5.71827209550770    4.33507799887312
N         8.77542983720617    3.70595833528697    5.88926228586976
N         8.51350181002254    4.82313949930595    6.49050928128699
N         7.59554950929986    5.47122181346139    5.83122487785405
C         7.17761214592659    6.66021756399657    6.53238486994815
C         7.54669587626936    7.96235105680751    5.81031184748615
C         6.97818739524950    9.20524960616501    6.49582711593415
C         7.59656169906944    9.47254722655074    7.86285209883198
H         7.21517423390583   10.40498584734925    8.27366001333652
H         8.67854882964504    9.55007321372809    7.78163019004980
H         7.36003927071102    8.67271414725684    8.55883555032972
H         7.15779996147068   10.07101744055088    5.85231650354910
H         5.89622275040295    9.09335637539608    6.60337667121250
H         8.63428302741388    8.04291084489048    5.75352369761141
H         7.15693919344090    7.92374484658960    4.78882089737940
H         7.65123952281516    6.64828169866173    7.52150619448734
H         6.09016625997648    6.63334708989334    6.67499539162785
C         9.77843208665413    2.88999022763798    6.55004368769014
C         9.46028769571973    2.75622359754524    8.04678341443596
H         8.48332372293878    2.29882890338671    8.17631970467322
H        10.20669700477710    2.14024163488285    8.54299758953322
H         9.44260148629995    3.74105286354071    8.50561540692244
C         9.76877702430599    1.51090829952856    5.89324121116659
H        10.45724362742622    0.84014249516349    6.40190528923191
H        10.05629965209359    1.59096265854826    4.84905192033620
H         8.76573729161413    1.09709722385665    5.93535776388133
C        11.16459067872510    3.54209866742409    6.40264675056060
H        11.91548079758241    2.95943051102996    6.93136257449772
H        11.45328418509746    3.60633759335357    5.35535973185479
H        11.13826070352794    4.54645526715207    6.81944537164440
N         6.07869283925687    2.81821389617184    5.47518396323082
N         6.33166214278548    1.77794088965227    4.74570256195965
N         7.17871139295804    2.09572284369966    3.80818520395259
C         7.58454385867010    0.94287958467645    3.04415779876076
C         7.08018595920867    0.94712177748790    1.59553997003466
C         7.54627941328587   -0.29091343968493    0.83414855430826
C         7.03993525711380   -0.29827964391913   -0.60350641741312
H         7.37734159564139   -1.19142745403060   -1.12433735696467
H         7.40695605226096    0.57216001532618   -1.14407501822991
H         5.95232812835769   -0.27962891488122   -0.62426097705787
H         8.63855937572315   -0.32588687981324    0.83522002034301
H         7.18746554344641   -1.18419038579923    1.34943174493654
H         7.44542258651387    1.84050183943031    1.08087865634427
H         5.98873484393549    0.98065388639401    1.59998438092417
H         8.67950563719513    0.87871020967698    3.03689974324087
H         7.19846783452381    0.04567731144745    3.54668661179821
C         5.15530195174182    2.57126015344048    6.56846131994397
C         5.59627771329408    1.33924452544917    7.37284664320676
H         4.90630952422039    1.14951112237602    8.19188080569219
H         6.59028626161252    1.50230065456754    7.78011073870924
H         5.62955550666582    0.47062254139147    6.72073987313799
C         3.74378276545073    2.31254463024927    6.01303781966727
H         3.05246741872399    2.09010308020769    6.82263754641453
H         3.37458063933111    3.18285085312502    5.47390657974454
H         3.77357997951268    1.46650262177919    5.33016506834970
C         5.15317076719464    3.80382704215962    7.47066631155386
H         4.53397725949255    3.63385014154408    8.34839116624071
H         6.16935862496158    4.02359460224801    7.78401763045840
H         4.77283438577212    4.66494678169426    6.92905068367325

