52
CSD_code = HEKBUX | q = 0 | S = 0 | Stoichiometry = C26H14F4IrN5O2 | MND = 6
Ir        8.01893376159414    0.96555022945141   22.06758574084916
F         9.29898542166431   -2.44934467046211   25.83016055219187
F         7.07899186452602   -4.39093340330809   22.20090241923262
F         9.82036504897404    0.39033348253230   17.18641532017924
F        13.16365744449407    0.29155760971761   20.45266889980229
O         7.87326260503828    3.08131673325152   21.65435406956198
O         6.65982673874450    4.89137196681798   22.09407960642254
N         6.28735470408104    1.55938938836973   23.23868860064961
N         9.09930020834597    1.22584487724706   23.72192362563351
N         9.87645547673353    0.17696506528334   25.69168342945590
N         7.00795240680891    0.72786506354353   20.34465317598850
N         7.29297152262912    0.69093606532893   17.99543449544787
C         6.92474287591842    3.70749322286557   22.20459760027153
C         6.02100305591979    2.86208764147681   23.13113312812851
C         4.97995392209788    3.46472262529479   23.82518064128539
H         4.82610698258520    4.52368659404423   23.68566712729088
C         4.19269831468160    2.69204376872645   24.65818560517365
H         3.37670535466730    3.12992335547593   25.21347274667593
C         4.47553338115028    1.33636667114296   24.76549438452657
H         3.89030895657080    0.69206323735170   25.40227767449029
C         5.52973805682011    0.81393639560132   24.03879240252459
H         5.78065000803711   -0.23725361123700   24.09249235200826
C         9.63875055462557    2.37443732166487   24.11971456968456
H         9.52284001071975    3.22159344255399   23.45589313451246
C        10.31490134350492    2.47536930170475   25.32465862613029
H        10.75202698002453    3.40706629670978   25.64122278385549
C        10.39363249066681    1.32150888427823   26.09531232184426
H        10.88623588249127    1.30155943797171   27.05747427467582
C         9.25853382277486    0.13895898902522   24.52682455165894
C         8.69541096648175   -1.08095479636008   23.98228781122285
C         8.73812580272039   -2.32251197116956   24.62048796472596
C         8.19644986587089   -3.44876123006764   24.03469627153945
H         8.23124987145044   -4.40558439215378   24.52873320363308
C         7.61335327151235   -3.30350632180984   22.78628111671798
C         7.55130326165431   -2.08934849403367   22.12561938072770
H         7.08583264873327   -2.05590020906300   21.15234843053394
C         8.09026297037587   -0.94673487617994   22.70752743928533
C         5.69174019980446    0.80353210941979   20.16912129684446
H         5.07391400664481    0.83601260106707   21.05786857534316
C         5.11805713324300    0.83241320882501   18.90949484167391
H         4.05035203958110    0.89713192569204   18.78421162022024
C         5.99002706053848    0.78251453937253   17.82841884815033
H         5.64455035162912    0.81149561810457   16.80447741999955
C         7.77928155272477    0.66686205540232   19.22198830990353
C         9.20058242994238    0.56585542255935   19.47578248725664
C        10.17004637496354    0.43597350575178   18.47761780390134
C        11.51112365321668    0.34398834532992   18.78927383714963
H        12.25703208407752    0.24487624707940   18.01794937990793
C        11.86110004711659    0.38441583842346   20.12861129100362
C        10.92856743029168    0.51222146743250   21.14301869263594
H        11.28245760032786    0.52893626819772   22.16249923388688
C         9.57716018020945    0.60915715575544   20.83714088358491

