59
CSD_code = HEKCEI | q = 0 | S = 0 | Stoichiometry = C29H15F7IrN7 | MND = 6
Ir        9.19710246679580   11.68492668932480    5.86562338597895
F         4.91206440950259   15.47690211667347    4.28057318338560
F         3.85950457097622   15.42763567801511    6.15793828418114
F         3.63577566723196   13.81045811147123    4.75714735413129
F        14.45295479751593   10.24189742786350    6.02345774322435
F        11.23154028051144    6.93871337488909    6.78341471078378
F        10.31429012536999   14.22997769833876    1.42041661740800
F         8.34000082489201   10.04435800109973    0.75989110419970
N         6.60841672011818   13.31692227262190    5.21645270905162
N         7.45411424875183   12.78936056677695    6.05802975343509
N         8.99593078917101   11.87567184982875    8.05707100900361
N         8.28722433484984    9.90191354578934    6.04695066951767
N         8.66098698926238    7.61671500000551    6.52785597922718
N        10.14624168961236   13.43668155819149    5.58413151623985
N        10.76131262133773   15.01736678161839    3.93355511069386
C         5.67722163475130   13.96644360880052    5.93311365553020
C         5.93146570291593   13.84758275423091    7.29692225327941
H         5.36263013010067   14.26055384429356    8.10356865847958
C         7.09648148747853   13.07674736414877    7.33704660733254
C         7.89789646539401   12.56976321826684    8.41557381894693
C         7.57270001031509   12.76687069754401    9.76209831344757
H         6.68808688071003   13.32821983603915   10.01498869594683
C         8.38832198303670   12.23553349045132   10.73733003365567
H         8.15545626612092   12.37326507383257   11.78236694087061
C         9.51695109721981   11.51828448749221   10.35324004129000
H        10.18001508416060   11.08560610616031   11.08421398358019
C         9.77566678645878   11.36785009122779    9.00455744204957
H        10.64528113838255   10.82309995427740    8.66200087152012
C         6.97864075316203    9.66708952610875    5.98492724236086
H         6.33900650927236   10.50717732228670    5.74933139104164
C         6.45440233444674    8.40328411156177    6.19928776098307
H         5.39463401053989    8.22260459711531    6.14064234992944
C         7.36266910672119    7.39313507166308    6.49264605280513
H         7.05329407261176    6.37730732921852    6.69593970709407
C         9.10285882834450    8.83823804846425    6.29264106723856
C        10.51800296136649    9.14714626091994    6.25660445500525
C        10.83459982474106   10.49380053604039    5.94998477802490
C        12.18170793876149   10.83331939634297    5.87415940243720
H        12.49328390838407   11.83853404772562    5.63309296861752
C        13.15845734112430    9.87941455433535    6.09684037151786
C        12.86166716366196    8.56187784697593    6.40594701903631
H        13.64033663896227    7.83759518225217    6.57809623098174
C        11.52951132575753    8.20926571567991    6.47835588124826
C        10.58595311397750   14.26936096503233    6.52452532867578
H        10.51131763571571   13.93770165191265    7.55271755044518
C        11.12378123054028   15.50696589165115    6.21741008266502
H        11.47426523394840   16.17068968047652    6.98964123365314
C        11.18229119909214   15.84192487530015    4.86911421884509
H        11.57687969097839   16.78774287114613    4.52495649712208
C        10.25744274212215   13.85005843184740    4.28811093471975
C         9.77728297802702   12.89659154754306    3.31367343471033
C         9.80691729206046   13.10247491671705    1.93123882555132
C         9.32446501218483   12.15205531118685    1.05568260674009
H         9.34468410859404   12.31326280407727   -0.00937856705653
C         8.81043521734721   10.98553459043047    1.59727732966819
C         8.76783736822463   10.74662065249673    2.95961965532820
H         8.35616178969173    9.80883301435088    3.29952274996524
C         9.24754744440794   11.69998425138108    3.84743275300229
C         4.54213002228294   14.66358779848788    5.28132824125546

