63
CSD_code = HEKFOV | q = 0 | S = 0 | Stoichiometry = C30H28N2NiS2 | MND = 4
Ni       -1.06180981302662    1.79961580968915    9.40686808729147
S         0.45918928988512    0.29325826898713    8.94698774642041
S        -2.68679203445096    0.42394602832333    9.92090134931500
N         0.45402897442444    3.06139673966441    9.58757563296112
N        -2.48265713011156    3.15868311373338    9.18195940744885
C         1.63528214494827    1.43594922557956    8.37919645164618
C         1.50995242550912    2.79519755843259    8.73216659765573
C         2.42827545143800    3.72809929901811    8.25326216322491
H         2.30591510141035    4.77577406073805    8.48660802645279
C         3.46479141906696    3.31662860792761    7.44326060466091
H         4.16417688589090    4.04110285357293    7.05354452704731
C         3.61517608215966    1.96822591863421    7.12976633179125
H         4.43913319756314    1.65432530224241    6.50577704965161
C         2.71663277753358    1.03405884661257    7.59476502832650
H         2.81933637824690   -0.01070375740713    7.34479974776644
C         0.38371802150565    4.07399020135162   10.37489963817738
H         1.10433575609812    4.89058252000930   10.33551751771311
C        -0.64349070009914    4.11270592149249   11.39733865189717
C        -1.19027185955318    5.31391416156185   11.84907341355954
H        -0.84977422527349    6.24619521635345   11.41990697945769
C        -2.18843743481359    5.31367092973478   12.80805745064887
C        -2.60814534631462    4.10067674698539   13.34708416281679
H        -3.37819691448680    4.10305902882255   14.10536981215243
C        -2.05687879703761    2.89288248416907   12.94221073627562
C        -1.08531044276317    2.90424700257464   11.95084265923983
H        -0.60573226282615    1.95944502871416   11.65779493223749
C        -2.81774208604654    6.59139353173773   13.27384381231533
H        -2.66256293395623    6.72128590814043   14.34406108521398
H        -3.89197076337385    6.56781954667733   13.09534751209965
H        -2.39590668689999    7.44908465268909   12.75582413506787
C        -2.46779983680160    1.60392982323471   13.58140316279485
H        -2.35855369803047    0.77661062859882   12.88449071005737
H        -3.49996577107072    1.65007842477988   13.91923666138723
H        -1.83392462657239    1.40431399687058   14.44628166695438
C        -3.77820167244182    1.66754995147017   10.44371198078429
C        -3.55419207735683    3.00114467491515   10.04452418421678
C        -4.40189354388342    4.01470514929532   10.48852246598894
H        -4.20230210462278    5.04205184835845   10.22078773699334
C        -5.46653988808529    3.70770621280076   11.30828829166291
H        -6.11132421515613    4.49422224727330   11.67091490267505
C        -5.71588098414300    2.38519813633264   11.66612469330864
H        -6.56174904808323    2.15370659512150   12.29683772230062
C        -4.88733989463154    1.37254219748198   11.23675209290256
H        -5.06665775162287    0.34722666249693   11.52161444289225
C        -2.33875041812724    4.13252585010814    8.35670058365581
H        -2.99615905754368    5.00167921288069    8.36417498164083
C        -1.31361055713382    4.05359604807471    7.33430370012852
C        -0.67629151947789    5.19083137252033    6.83800234358918
H        -0.94314540554096    6.16223756999436    7.23095953057662
C         0.31704135148314    5.07704584160983    5.88059253399521
C         0.64042426553572    3.81583699719412    5.38804481732007
H         1.40655122583119    3.72983914519875    4.63067168216952
C        -0.00222366141432    2.67054428447232    5.83738301244826
C        -0.96791035317153    2.79444338985210    6.82698409408329
H        -1.51985478332680    1.90130731896667    7.15301761005174
C         1.05038073472379    6.28347731435965    5.37846911655316
H         0.58434031343420    7.20083067395620    5.72959778123600
H         1.06964470744291    6.29382559570487    4.29022216426232
H         2.08247902734621    6.26322352978101    5.72817085534984
C         0.30468785812871    1.33036296378391    5.24710707729535
H         1.33040878755478    1.28918812056998    4.88948847908396
H        -0.35952908304253    1.13984421780975    4.40308691685156
H         0.15187720459491    0.54256324706864    5.98082075404330

