51
CSD_code = HEKFAH | q = 0 | S = 0 | Stoichiometry = C26H16Cl4N2NiS2 | MND = 4
Ni        2.63809989662730    0.92865559812896    3.14834558894832
Cl        0.44625906170285    2.06611618688645   -1.50491693156808
Cl        2.32087276264679    7.08788313732261   -1.17317752657282
S         4.12516487006826   -0.47390879425369    2.58064091719112
N         3.76747177647048    2.29328910963041    2.62043000730613
C         5.32668185538968    0.64959323108754    2.07044556723308
C         4.97474014168090    2.03045326943341    2.10532625014951
C         5.90645947670168    2.96771742668187    1.60406517260906
H         5.65807676035787    4.01694817734685    1.57743885376483
C         7.12441496784612    2.53949571995227    1.14645777127735
H         7.83382139312526    3.26110076822909    0.76934781977350
C         7.47059191095793    1.18066400266462    1.15254858483710
H         8.43951975512587    0.87643222923402    0.78833302792601
C         6.57672178827507    0.24130288626906    1.60500257354662
H         6.81466797802869   -0.81112709815182    1.60073932730446
C         3.20429858317428    3.62507119254631    2.61372089151856
H         3.95792374663057    4.37885362820755    2.87715668193241
C         2.60385900853466    3.95122110176029    1.26072409362036
C         1.89694214748270    2.97572613092207    0.56945167669743
H         1.79597953759353    1.97337506177750    0.98550500532737
C         1.32482965294838    3.27909824539039   -0.65372035538748
C         1.44794652449538    4.54523799082560   -1.20674864814594
H         1.00446061682472    4.77419117802063   -2.16181776710459
C         2.15525492607596    5.50737222089722   -0.50446313080982
C         2.73221230574298    5.22404490764469    0.72381109181030
H         3.27568968396414    5.99214421496286    1.25194625463225
Cl        4.83223348091878    2.06849381588838    7.80378399174474
Cl        2.95793154356685    7.09020568644138    7.46949183516951
S         1.15019522981729   -0.47407213098876    3.71355053513733
N         1.50944434679415    2.29302572780842    3.67859844244800
C        -0.05078373570140    0.64922489936428    4.22539736873976
C         0.30203719108142    2.02993504689122    4.19319906487411
C        -0.62908616609957    2.96683225061992    4.69626965082869
H        -0.37978886016441    4.01578349663710    4.72539662637992
C        -1.84746982822671    2.53853222902140    5.15266793741430
H        -2.55641446813380    3.25983725495334    5.53121399436459
C        -2.19471254799753    1.17998155525120    5.14343825477319
H        -3.16406020195346    0.87571468238293    5.50650830526778
C        -1.30134418662642    0.24089851878086    4.68942421848082
H        -1.54009682505433   -0.81135846523502    4.69135064467370
C         2.07229164459729    3.62494104054848    3.68543930060236
H         1.31839404851694    4.37843464126087    3.42191706970272
C         2.67295875545260    3.95169641348468    5.03816269217860
C         3.38022730133690    2.97662596699708    5.72965427102177
H         3.48079839490959    1.97405874891613    5.31419589039794
C         3.95318027728139    3.28089189498405    6.95222352543045
C         3.83054334936957    4.54744674700914    7.50441106751710
H         4.27480359802228    4.77710890440585    8.45895444487259
C         3.12276123826387    5.50910233226420    6.80194493550707
C         2.54498424192013    5.22491812850519    5.57426078332758
H         2.00131104963522    5.99268889038431    5.04585235132643

