114
CSD_code = HEKGAF | q = 0 | S = 0 | Stoichiometry = C57H51O2P3W | MND = 6
W         4.23962543317016    3.64201565529198    0.41085635072435
P         4.54929345280040    4.99834439638498    2.42877091312786
P         4.66603877613007    2.01321494710230   -1.35128160110902
P         2.10579276759802    2.64898351282120    1.18582905277923
O         4.98188274789638    2.17444278061945    1.54773168976633
O         3.50275124510205    4.77968240388875   -0.58904374690369
C         6.13369076744109    2.08159882940196    2.18847040571503
C         7.30109543761910    2.78516664617993    1.77756761517477
C         8.40944497564499    2.77362815469732    2.62494501279331
C         8.44201151724544    2.05276828267656    3.80168312797665
C         7.35256321494261    1.27756638438597    4.14538157966909
C         6.21469772461745    1.26986026358090    3.34982214978313
C         7.39469495524524    3.54879338024422    0.51854497967589
C         6.25214248640499    4.11596940019363   -0.08011453209835
C         6.48572773507365    4.98996477335811   -1.15199709058037
C         7.74238091921012    5.25108186048522   -1.65826183049977
C         8.83566023863507    4.58016041338334   -1.13359280518619
C         8.65782599636153    3.74314041154200   -0.05322899114646
C         5.11585918562001    0.37712988630505    3.75540099479841
C         4.61119229057044   -0.57147496460691    2.87109685844142
C         3.65056907201691   -1.48039846956825    3.27777154387125
C         3.18511920346611   -1.46334360621910    4.58198428034287
C         3.68695326133457   -0.53017367570698    5.47469821580013
C         4.63868034385098    0.38497398207048    5.06489758187884
C         3.36665615969705    6.37706894837823    2.64597655401093
C         2.66737400854330    6.80020113329712    1.51997812883518
C         1.74821481244308    7.82972047628891    1.60646912119865
C         1.51367402477361    8.44563661437518    2.82532802219721
C         2.21253974031020    8.03588373287548    3.94813925683390
C         3.13893385607152    7.01123953487594    3.86217189852373
C         6.10324916492774    5.96697925747137    2.35492909501799
C         6.19580278167401    6.87215056612565    1.29848289092710
C         7.36525532702436    7.56809691378635    1.07193635580097
C         8.46578162554061    7.35359613464854    1.88747202825051
C         8.38431496395225    6.44885292368031    2.93047677176587
C         7.20974153804968    5.75452146776789    3.16699138417959
C         4.62453061800276    4.28287345681479    4.12221077129964
C         5.53036138923268    2.69688555058351   -2.81135994236532
C         6.82317652827167    2.35563251013795   -3.18739581521755
C         7.41445958484357    2.97340218135707   -4.27610747681371
C         6.72569346395899    3.93318762029411   -4.99567393964146
C         5.44185377475544    4.29095280125277   -4.61473521009467
C         4.85145627055526    3.68225404815871   -3.52513495809676
C         3.25325549303090    1.23888746355917   -2.23463700075684
C         3.23299035060659   -0.03821939145656   -2.78171470727540
C         2.08069410102782   -0.51171093373902   -3.38781027398998
C         0.94837165064273    0.28182480830819   -3.46248412702978
C         0.96524286940884    1.56238477402942   -2.93069085322172
C         2.11109387510201    2.03054939917217   -2.31748105271781
C         5.70818508823091    0.57990665207507   -0.89961162805188
C         0.53819662515662    3.20270635035696    0.41982308742315
C         0.53068042717961    4.32038684347135   -0.40501781294528
C        -0.64974858260189    4.76777149798313   -0.97145937187547
C        -1.83614634605950    4.10021479974590   -0.71682573589823
C        -1.83795347349960    2.99237011587907    0.11496482085529
C        -0.65993043051280    2.54848388433244    0.68722713648401
C         1.59146795243277    2.92762008232395    2.92576106194473
C         1.83983679833837    2.01207061944899    3.94265057849326
C         1.52239781002521    2.32375658922191    5.25374496409306
C         0.96025847174015    3.55007979406980    5.56616192469608
C         0.71744494395269    4.47261719895772    4.55835405572672
C         1.03644202867204    4.16632610370639    3.25058038056227
C         1.94961786992907    0.81514499877515    1.06470291002352
H         9.26679955831522    3.37578216758014    2.36606099747439
H         9.31567852666918    2.08217592635956    4.43595974202079
H         7.37626721336793    0.65817466748227    5.03124679238547
H         5.62912292501490    5.48478894717643   -1.60321859183692
H         7.87003481764168    5.94311796595574   -2.47993859228251
H         9.82050894876806    4.71476963971385   -1.55945040215477
H         9.51658973734869    3.21370587201477    0.33737969114326
H         5.00862532830652   -0.61265300517777    1.86680063771530
H         3.27199528168533   -2.21359812119851    2.57865014196355
H         2.44168944883605   -2.17853628803119    4.90267469576145
H         3.33686550499914   -0.52127428626514    6.49740769422711
H         5.02077400660486    1.11481384214726    5.76489006299135
H         2.85502379814647    6.29749862281879    0.57593259663956
H         1.20956560109445    8.14928774385653    0.72617786882228
H         0.78957755410247    9.24379555807529    2.90053365929198
H         2.03615460632394    8.51821049293949    4.89913441998497
H         3.67710584252726    6.71311619553918    4.74868898642712
H         5.33797994660879    7.00798724797884    0.65073114610455
H         7.42871963360804    8.26576460288220    0.25008707236590
H         9.38784068011939    7.88483847064311    1.70269138095696
H         9.24336245661664    6.27301509667701    3.56213868360529
H         7.17365397627057    5.03661631939717    3.97290824299420
H         3.62386268966689    3.98132776837851    4.42751186215596
H         5.02073126077124    5.01313784853509    4.82653233391787
H         5.26950487702560    3.40524134616350    4.11860864766599
H         7.38850977700386    1.62796596011745   -2.62543612144108
H         8.42282303064401    2.70690909660803   -4.55805285103737
H         7.19246546405417    4.41224238996312   -5.84397456705297
H         4.90835535252515    5.05388466901968   -5.16315979857608
H         3.86444313791543    3.98190427468965   -3.19649785407735
H         4.10743558622302   -0.66997398491653   -2.74019530138897
H         2.06725749264054   -1.50864502233753   -3.80461615325871
H         0.05376133410904   -0.09804474753587   -3.93346090626679
H         0.08553473901349    2.18730128010222   -2.98313475829679
H         2.14370202860886    3.01888696695761   -1.87304529498173
H         6.58797715266204    0.94340758360546   -0.36698929983002
H         6.01475188104377    0.01982738295514   -1.78203536771286
H         5.13394263522441   -0.06671782240610   -0.23674208959179
H         1.46829402082478    4.82722479081816   -0.60511868702812
H        -0.64506804885150    5.63686622850216   -1.61322686636094
H        -2.75906785872691    4.44361339402683   -1.16112739363929
H        -2.76359979060586    2.47471381121862    0.32215218438174
H        -0.67808588775486    1.69670114778685    1.35105121866098
H         2.28423715956805    1.05635221986739    3.71456752801521
H         1.71685562470283    1.60207172426924    6.03357741348999
H         0.71253774853503    3.78844744590751    6.59008958987720
H         0.28100501634902    5.43239421107731    4.79381065382056
H         0.84940963359570    4.88581173737118    2.46398832446314
H         2.88915039585174    0.37999943774336    1.40293479254974
H         1.79188971721006    0.55039205917410    0.01873202087578
H         1.13388753373568    0.42535595288457    1.67174476612759

