47
CSD_code = HEKGEM | q = 0 | S = 0 | Stoichiometry = C16H20FeN8S2 | MND = 6
Fe        2.02792053028597    1.38071397575845    4.39176419289896
S         4.18794823430661   -1.14623327654250    1.34565315500703
C         1.80168321327327    4.16720252809896    5.11957032190237
H         2.68256055017133    4.17182657649322    5.76516399828575
H         1.21957944569183    5.07390446683386    5.33258025367649
C         4.82495164370453    0.74801611219922    7.41280071364444
H         5.76006451703313    0.23147405845424    7.57095669716467
N         1.01927470690292    2.95926057757901    5.41392464437381
C         3.54729214589826   -0.48100607907482    2.63193256993348
C         2.50468769480987    1.99047484463907    7.04994097094364
N         4.32247315376124    1.39021714577563    8.45839902114862
N         3.16395602496120    0.06597643272451    3.60089198261495
N         3.03864401422060    1.37327538587046    5.97598041846302
C         3.16047197459804    1.99688897652243    8.27024966164049
H         2.73631773876546    2.50081815263894    9.12778751433202
C         4.19915959351294    0.73810113475226    6.17934173608743
H         4.59763225983037    0.20820099456052    5.32939984379414
C        -0.38725035379020    3.13612596228305    5.07722191761957
H        -0.49127152528539    3.43038172052010    4.03546309042598
H        -0.85928360534347    3.89798767616967    5.70858894067913
H        -0.90076630162942    2.18768186335725    5.21630887764823
C         1.15901786318120    2.61389821511509    6.83214366615851
H         0.40272954744939    1.86330839179522    7.07984049449933
H         1.00618194574981    3.48650551902655    7.48231318659364
C         2.25406884168261    4.16719322232858    3.66397510829018
H         1.37318585229356    4.17172921856592    3.01838885464894
H         2.83610895061586    5.07392642384626    3.45092737239957
C        -0.76892690660503    0.74787348571483    1.37057891322520
H        -1.70401746934816    0.23130710445026    1.21238001635055
N         3.03655715024530    2.95929288297740    3.36965464380935
C         1.55126655769557    1.99042888200001    1.73356173463268
N        -0.26637204690193    1.39000889336452    0.32498022410886
N         1.01722887359162    1.37329323289192    2.80751922769408
C         0.89560112327236    1.99671885006180    0.51318935381432
H         1.31983663020296    2.50056649821897   -0.34435482392260
C        -0.14324539335704    0.73806771232613    2.60409476772079
H        -0.54177726024208    0.20822134459125    3.45404171354537
C         4.44305953871078    3.13623723739662    3.70641316078459
H         4.54702650783485    3.43051954257584    4.74817042165160
H         4.91508056842377    3.89811090572760    3.07505095768305
H         4.95663385515939    2.18781876147873    3.56736394994991
C         2.89689609526831    2.61391922154902    1.95143078675584
H         3.65323045706506    1.86336174892394    1.70377791205798
H         3.04973020221532    3.48653058920498    1.30126614761571
S        -0.13289583716095   -1.14608206972546    7.43752519225608
C         0.50825541268425   -0.48087756342298    6.15154324756136
N         0.89189328458952    0.06593251940024    5.18260324783227

