57
CSD_code = HEKHEK | q = 0 | S = 0 | Stoichiometry = C23H29ClN3V | MND = 6
V         2.88169953152434    7.91131616145912    3.16815707895641
Cl        3.76335063068160    8.21814525713036    5.02526153543486
N         4.33131067929411    7.89630656101958    2.00733571732049
N         0.77600921678193    8.02592184803899    4.22956762174194
N         4.78689749538435    5.41899345593194    3.54500313029226
C         4.21719424166671    7.63085504982671    0.69015476724202
C         5.27378350138429    7.62335490858475   -0.19410255440327
C         6.55500960282835    7.91108297883424    0.25895183717689
C         6.68712358195762    8.19929361236838    1.61165199477459
C         5.57910338929089    8.18254802691889    2.43031257308858
C         2.17289675745615    9.68134609948983    2.53371751564068
C         2.52800834226768   10.40874196027704    1.40501398233490
C         1.97393248726278   11.65390830169905    1.14157686016536
C         1.04752427675480   12.19932602665674    2.01247976147336
C         0.67254194194859   11.49162467778439    3.14140099551262
C         1.23130745062046   10.24769188534924    3.39782445940366
C         0.83330963572807    9.44325178268402    4.60647113997317
C        -0.43366743544147    7.82105838844154    3.43985992132323
C         0.69462836974120    7.17505556963581    5.41112133924628
C         2.17639110414356    6.22972990684672    2.41461217167188
C         1.28211173612844    6.31869662982389    1.35264668819151
C         0.68700516729368    5.19309093403331    0.80060322786286
C         0.98429463477655    3.94189483570424    1.31039098230191
C         1.89200906359726    3.82813797169517    2.35031378762694
C         2.48691011243015    4.95754278606100    2.89720308970322
C         3.52598330434358    4.82145252194053    3.98007473965443
C         5.75215078189817    5.42237253185345    4.62633437872718
C         5.32461193718925    4.70934659470507    2.39902363380644
H         3.22258880854463    7.39998141955229    0.33093286875093
H         5.09320095586116    7.39343117120290   -1.23351392095979
H         7.40284521751880    7.91473672083065   -0.40684279356287
H         7.65191168411919    8.43968170587606    2.03296633296051
H         5.69574653438613    8.40958057612468    3.48090072234468
H         3.25704716914063   10.01315265453951    0.70426960269321
H         2.27041854869716   12.19996907670258    0.25643217235256
H         0.61536271504853   13.16918100341386    1.81222048642402
H        -0.05695332327121   11.90735757801299    3.82465364017537
H         1.02896078175877    7.29425376290482    0.93909670197313
H        -0.00737880978428    5.29429275582318   -0.02280411868712
H         0.52262309099890    3.05893651458032    0.89279221610791
H         2.14328931157013    2.84851311564236    2.73652784078754
H        -0.13535749997576    9.78338265354867    5.01106082029373
H         1.59092863551402    9.56681645633136    5.38864870548285
H        -0.42078138819475    8.47360412299481    2.56672243865305
H        -1.33139777147342    8.05327431438312    4.03307363217643
H        -0.49440600610833    6.78478076016532    3.10900795060801
H         1.56982700954676    7.32770857291936    6.04128894537698
H         0.66166253451194    6.13015071816912    5.09857860077718
H        -0.20893978169248    7.39614276455342    5.99951616894578
H         3.66118678978173    3.75520393156184    4.24531589124155
H         3.20226144339742    5.36430070904474    4.87516511899597
H         5.36466303643982    6.01010328847377    5.45702637238064
H         6.67797811400052    5.87944274716346    4.27797361643130
H         5.97982976957280    4.40567658031473    4.98860417078865
H         4.59788797285839    4.72388654705874    1.58784854867795
H         5.56713389903840    3.65998635692644    2.63697722419775
H         6.23292901925875    5.20718415639289    2.06039766732045

