88
CSD_code = HEKKIR | q = 1 | S = 0 | Stoichiometry = C43H40NP2RuS(1+) | MND = 8
Ru        2.98078530099682    1.34791706604300    4.90773196200173
S         3.20648813065689   -0.49562843608431    3.33023213359929
P         5.17204813880806    0.92327849072845    5.55852533460332
P         1.92695802330573    0.18265524877650    6.61276868739392
N         0.69166941383052   -0.22286941424006    2.63668846504365
C         1.86159480007057   -0.80591641854676    2.40353411365630
C         1.96588455410218   -1.76755576535063    1.27341481312321
C         5.98359598135453    2.36687125954042    6.31608604714538
C         5.42923774270788    2.89190172443837    7.48144459145764
C         6.00065575930617    3.98859324601969    8.09822697180931
C         7.12258377708904    4.58615197201309    7.54589652627075
C         7.66405791530702    4.08337810057955    6.37492159441922
C         7.10135634293609    2.97870140954439    5.75846408666709
C         6.33680788584370    0.52975611903926    4.20866852410625
C         6.04854888204319    0.88281607966488    2.89554270186725
C         6.96086007881206    0.63128503811618    1.88571407528686
C         8.17386415549227    0.03369495661757    2.18154106048346
C         8.47594156411141   -0.30540938306417    3.49158401544851
C         7.56672301154113   -0.05853430206189    4.50252318880315
C         5.52285856046230   -0.44570949033059    6.71083768987444
C         5.47421308773285   -1.73094288816522    6.17035308721563
C         5.67916456158290   -2.83516196927058    6.97320999400980
C         5.94070121483858   -2.66820372692020    8.32447685390834
C         6.01197251718928   -1.39455993587411    8.86099910575178
C         5.80104311279082   -0.28303763233622    8.06200800755682
C         0.12469211863891    0.53437458407253    6.58700906439471
C        -0.61653988759250   -0.18469346806565    5.64905105658910
C        -1.97444129939308    0.02618433551624    5.50929158824937
C        -2.61504533589401    0.95880763134411    6.31002092782253
C        -1.89173515757744    1.65830027926833    7.26010065774466
C        -0.52943382730841    1.44965927906423    7.40166255310406
C         2.42960764734917    0.67139222382848    8.29804190981363
C         2.37916536287828    2.02298385155041    8.64014265930285
C         2.72364706614488    2.44139638544672    9.91308294522579
C         3.15748588784034    1.51839560925146   10.85066097613515
C         3.25741971597244    0.18202370106980   10.50278461696701
C         2.89871387262808   -0.24353024984833    9.23544091863344
C         1.77535752542457   -1.62981465112848    6.79074959607040
C         0.92265019971489   -2.12941962033120    7.77670604505171
C         0.76903929147888   -3.49243677244748    7.93228811220022
C         1.45459872626468   -4.37076305104569    7.10534414898017
C         2.28757749954479   -3.87946014081648    6.11623606388404
C         2.44534770859323   -2.51251433993413    5.95832392225689
C         2.62833172724192    2.76995109382814    3.18681266963203
C         1.41048733050210    2.67921385672383    3.92428736128651
C         1.65712915947836    3.20362673293277    5.21670321836544
C         3.02037644954741    3.57102199658313    5.29963384384136
C         3.61626617248860    3.31708979121213    4.02754627676151
H         0.60338048802029    0.38890369812532    3.44270685177262
H        -0.12516561517752   -0.43641256888703    2.08705281217799
H         1.33593317685323   -2.63631315726286    1.46470101113683
H         2.99314637250704   -2.09779587137234    1.15585938025153
H         1.62838442616974   -1.30649907322386    0.34583660453410
H         4.53891065357312    2.43619413386138    7.89227783644049
H         5.56782898764728    4.37934408876018    9.00746807401352
H         7.56883572936401    5.44498682114010    8.02326359379097
H         8.53157329942027    4.55275814000649    5.93600449998197
H         7.53505726413319    2.59858975715412    4.84518303201473
H         5.10425555059425    1.35583113688690    2.65998754380879
H         6.72517783336544    0.90425841502773    0.86781201693623
H         8.88556506632040   -0.16379354950762    1.39461174449867
H         9.42600194070519   -0.76101044778232    3.72666152065763
H         7.80860215171032   -0.31643268775527    5.52401396073711
H         5.30243615481280   -1.84800785441857    5.10738831721089
H         5.64327753569743   -3.82635204544365    6.54718548013148
H         6.10164356229267   -3.53006769062068    8.95396440230131
H         6.23664478296599   -1.26009447490971    9.90839378630272
H         5.87494378774408    0.70403969358371    8.49253913270202
H        -0.11967590658126   -0.94485754719330    5.05801895603874
H        -2.53807426829416   -0.54398236092185    4.78551886628264
H        -3.67537079819399    1.12728619478031    6.20374642460214
H        -2.39006858189820    2.36883750802661    7.90225588823683
H         0.01066850368273    1.98669882509915    8.16668219988984
H         2.08146075139769    2.75201845975965    7.89802851892625
H         2.66092159682495    3.48864729954237   10.17008870096000
H         3.42617220611696    1.84267347902906   11.84421984747846
H         3.61386616321481   -0.53845766037792   11.22314150246121
H         2.98694688739829   -1.28832824192284    8.97856624899340
H         0.38469536170761   -1.44477786086622    8.41853178729524
H         0.11159332504053   -3.87330248863062    8.69912272771197
H         1.33213112757294   -5.43562842517054    7.23125950180078
H         2.81487965433193   -4.55858911512629    5.46326943823515
H         3.08709518419133   -2.12212753546336    5.18317741776421
H         2.73311538627725    2.57405005695534    2.12646226036401
H         0.42689177021499    2.51696590841417    3.50417200690126
H         0.89391348498522    3.39414078089614    5.95936686095239
H         3.48147733324974    4.13221123633370    6.10045978636570
H         4.60641520313691    3.63473461636331    3.73078469350481

