102
CSD_code = HEKQIX | q = 0 | S = 0 | Stoichiometry = C44H51N2O2P2Rh | MND = 4
Rh       11.57136486570197    1.91622342532042   25.12659062504782
P        10.97388921675126   -0.19880924268448   25.52387079818818
P        13.75474489061880    1.67628695585398   25.51633903902303
O        15.47013496738539   -1.85797838926224   26.44891955741438
O        13.54201962068827   -2.94568042341811   26.99770741340381
N        11.75962553983515    3.90406362590226   25.18148734992008
N         9.68163151676945    2.41455413077859   24.50099723445987
C        10.37715092433425   -2.77176627558579   24.40126437926102
H        10.12752293797251   -3.12760468382175   25.39038611676727
C        10.30216603311819   -3.63629872857570   23.32372859073889
H         9.97611437349443   -4.65520788479369   23.47630523169553
C        10.64923263988233   -3.20578888917476   22.05267235154030
H        10.58664498118365   -3.88739852963903   21.21709958552058
C        11.08810038247957   -1.90654897354659   21.85776912955799
H        11.37509680156952   -1.57482100979389   20.87057131832557
C        11.15862591712785   -1.04093931790028   22.93339916361123
H        11.50902852904126   -0.02043423311113   22.81300646650115
C        10.78986169675294   -1.45670692303132   24.20863271419451
C         9.31609279170791    0.79067509796982   27.42130602293722
H        10.17940888701270    1.43466909990175   27.57430815374518
C         8.17145297672239    0.95155785590358   28.17713885571579
H         8.13003788476868    1.70891451327438   28.94659618647459
C         7.06927529285750    0.14578618430427   27.93516991165048
H         6.16905254934532    0.27011363210326   28.51911458382521
C         7.11755012983980   -0.80703599754492   26.93213142257891
H         6.25239122422873   -1.42255238338861   26.73125484018530
C         8.26625252056811   -0.97162387160682   26.17572513149739
H         8.28118840042352   -1.70241964562192   25.37978515921496
C         9.37973896598195   -0.18182751484703   26.42623441759128
C        14.06030229715864    2.72557652639353   23.02448022978054
H        13.07924871043017    2.26610990306591   22.90625606233575
C        14.65572425399341    3.41426225045551   21.98585882983830
H        14.16471816796663    3.48355548337613   21.02589292569340
C        15.88113969983416    4.03050732488315   22.18387757949189
H        16.34774179001714    4.57923194738401   21.37888210532626
C        16.50076302965098    3.95689210925748   23.41993930747316
H        17.44899186943148    4.45074131593065   23.57761585638056
C        15.90859535021540    3.26020923612779   24.45967020853544
H        16.39083902665704    3.22767709778703   25.42604329035427
C        14.68440615710492    2.63545501581698   24.26490435693265
C        15.72323748818357    2.00979252016014   27.57671532592358
H        16.44076074528849    1.48720993621844   26.96080330513553
C        16.10544199313683    2.46051532554437   28.82776033865823
H        17.12050470860871    2.30549451190215   29.16497436777546
C        15.19481618795367    3.10456797932129   29.65007799237664
H        15.50274967812487    3.45613982481511   30.62400014383403
C        13.88897009253317    3.28546211880739   29.22539412558890
H        13.17255406810418    3.77528238553884   29.86865506489584
C        13.50528761186036    2.83567406936587   27.97573105927837
H        12.48499301514763    2.96551196426569   27.62781304423773
C        14.41910189503191    2.21081659983032   27.13192141291176
C         8.64472845728886    0.68703106675387   20.03073017289776
H         8.13584336949567   -0.10580621200021   19.47790469535889
H         9.72043623162663    0.51954641337345   19.94157606235957
C         8.29391128856207    2.04680282963712   19.43484168429771
H         8.60872996613255    2.08912478202915   18.38985292702828
H         7.21037691438045    2.18492301181733   19.46272697908183
C         8.96588837403245    3.16395347259169   20.22728994762386
H        10.05093050280416    3.06480399063550   20.14756852283850
H         8.68849732806643    4.13461721375963   19.81052382946176
C         8.55919986306708    3.09839449853118   21.69746338420106
H         9.05858529601434    3.89847752618501   22.24844435551784
H         7.48009451163437    3.24896526502766   21.77104244845051
C         8.94361007757345    1.74193029123378   22.28524426624136
H        10.02751674234530    1.62533080214640   22.15126250222295
C         8.24698809664141    0.62892081483987   21.50297602176562
H         8.51673179660004   -0.34418636198422   21.92084931884652
H         7.16441195599215    0.74486858926224   21.58548850754438
C        14.67178547917015    0.07709378493696   25.27168123377528
H        15.74562520992353    0.27713198027300   25.21962239729051
H        14.36486487377684   -0.34975686473337   24.31211612298647
C        14.42196479566327   -0.90758531052140   26.39723434703525
H        14.36754554474298   -0.37379046041067   27.36299576229164
C        13.18361854881912   -1.79612110753788   26.25170176889412
H        13.06591971848728   -2.07913811444194   25.19023960152080
C        11.88442067607216   -1.22205173992677   26.78607594250438
H        11.24859895227901   -2.05761425745887   27.09334506307353
H        12.07257844315592   -0.59977058486090   27.66599277637855
C        14.95930150958019   -3.04647025845054   27.02774050950354
C        15.40782986821221   -3.17896243360219   28.48632293717183
H        14.94904745795215   -4.05902980340424   28.92587811474535
H        15.09585832751740   -2.30041593170043   29.04529840972210
H        16.48919970360894   -3.26455944203098   28.52835758788061
C        15.43243301045450   -4.23684289666561   26.19081461961397
H        15.04907659792200   -5.15766393204729   26.61894570282169
H        16.51743939395138   -4.25814499765670   26.17545063233203
H        15.06428917599370   -4.13342512338374   25.17354761752984
C        12.62961169974315    4.86366618614724   25.49576213907818
H        13.68693415544263    4.67631697562473   25.58029783798185
C        11.97339589906389    6.08444683923902   25.66767115825634
H        12.43826823770392    7.02032195479978   25.91459135664986
C        10.62631564560589    5.84938628088523   25.44579378427275
H         9.81947050813700    6.55651707651508   25.49396966089958
C        10.51538978261719    4.48252038053125   25.14983563941644
C         9.44744111763866    3.66618290986115   24.74180072498374
H         8.46729657535290    4.11428319750355   24.59285863407072
C         8.69806298163982    1.60644726971142   23.80876559857605
H         8.92338371611894    0.55879426367199   24.05480333058792
C         7.25396344162441    1.86689610347521   24.24091393138962
H         6.61498610312198    1.07003566516557   23.87009156031106
H         6.87100245572606    2.81288915881173   23.86995451936223
H         7.19761432622667    1.86902818752266   25.32806466803134

