56
CSD_code = HEKRAQ | q = 0 | S = 0 | Stoichiometry = C19H30ClIrN2O3 | MND = 8
Ir       10.94750349440802    0.23673724491223   12.50377525099481
Cl       11.97113704097032    2.33483089130374   12.64398426749976
O        10.06845906588225    0.79515891506742   10.70991750487839
O        10.37106137471781    0.90727949988918    8.51057836715984
O        16.03774227132883    0.71332423022252   11.26252599458082
N        12.42577733545120   -0.19928963147968   11.10414762929881
N        13.65546896243126   -0.73220524383411   11.36368259750985
C         9.53758508129722    0.43734214783954   14.18718753354004
C         8.98568342447852   -0.52745195506234   13.30057781055062
C         9.90304204935947   -1.62252404712932   13.20628598869507
C        10.97829482342974   -1.38129589145944   14.13063129064823
C        10.77092634599410   -0.09927136118676   14.71615379387935
C         8.87484462538486    1.68644816295524   14.67081514753594
H         9.61500811077144    2.46187577144755   14.85337717892044
H         8.34217325227572    1.49157304710733   15.60385039840754
H         8.16803543548502    2.05677260582213   13.93337061163909
C         7.67944163989348   -0.42493810014709   12.58842932290796
H         6.96669571160558    0.14422719501183   13.18073839008524
H         7.27102648673712   -1.41428403816695   12.39487146481422
H         7.81218092900703    0.08485337648283   11.63315459460733
C         9.64006763641425   -2.90535984124985   12.48448197653373
H         9.17262227800349   -2.71617179945394   11.52069288179395
H         8.96896401413733   -3.53489427195482   13.07237417232031
H        10.56110425063079   -3.45919727228166   12.31817105482441
C        11.97909701086759   -2.40503065175061   14.56291370535545
H        11.50112084105885   -3.09869442755148   15.25750851659790
H        12.82201806670827   -1.94505546478844   15.07210281481424
H        12.35108782034773   -2.98323824818178   13.72013761467895
C        11.55136151023392    0.53795119090474   15.82087039560693
H        10.94128286090137    0.57947915832633   16.72366566176234
H        11.82621891445032    1.55630894871657   15.54966975417511
H        12.46005749681561   -0.01628908857001   16.04062038088008
C        13.95202802395518   -2.09993508746621   10.99336260733734
H        13.95479573303688   -2.22640910387871    9.91037143219945
H        13.21106055546767   -2.79402901452941   11.42058898166948
C        15.32811345617767   -2.31040741238121   11.60922636681910
H        16.07975955007098   -1.84114718814398   10.97743043608487
H        15.56877587715249   -3.36305231922638   11.74352031362006
C        15.23034888244783   -1.54611811339858   12.92867164865745
H        16.20570598077236   -1.22470140683031   13.28400645590676
H        14.76688798626109   -2.16744403956592   13.69456371601662
C        14.33656603190547   -0.34826438679920   12.58799578162647
H        13.61152811390448   -0.11914775379568   13.38135485937151
C        15.12570757159586    0.93808244384268   12.31660931889122
H        14.41799901461072    1.73543726752047   12.05334479628135
H        15.65981162715955    1.24322505677756   13.22908373076403
C        16.67307834757796    1.89176332394270   10.84073566772831
H        15.94298520309347    2.63394864011772   10.49677418744595
H        17.33083397158324    1.61628677339900   10.01825195125342
H        17.26674520244326    2.33543059379307   11.64958215188440
C        12.14176763205851    0.09371361888712    9.87705721723583
C        10.74501229389194    0.65417929522155    9.63783354492923
C        13.07983150580719   -0.01490818632512    8.73609459823601
H        12.77224703860885    0.70401614209645    7.97909987547114
H        13.02878212447767   -1.00586501801894    8.28337514320190
H        14.10013811446569    0.17047482300674    9.07050114986270

