33
CSD_code = HELHUB | q = 1 | S = 0 | Stoichiometry = C6H16CoN4O4S2(1+) | MND = 6
Co       -2.77505605276247   -0.15724483543354   11.54809590193879
S        -3.76646865814041    1.13763126481347    9.62519379727773
S        -3.19533854041879   -2.13111472637380   10.03847625013644
O        -3.19436635169432    1.17486651049039   13.65385567920576
O        -2.19656816201865    2.25528243987408   12.06155402989369
O        -2.52328371572565   -2.16698434147010   13.06988119574093
O        -0.85873775066649   -0.77875760167652   13.07346871201005
N        -0.96979623500461    0.29020601827458   10.59007008966738
N        -4.66830677239552   -0.64311671814512   12.29388061517609
N        -2.69776430712388    1.29616376375541   12.57270292247670
N        -1.93912639416801   -1.17380613693974   12.74665157970596
C        -1.06035909387013    0.63615058075488    9.16329781129629
C        -2.16196948467850    1.65900187413264    8.93673104524733
C        -4.37196098060174   -0.08220511533131    8.40133511862150
C        -3.75012562100944   -1.47340627084270    8.42245441460835
C        -4.75266741564168   -2.62421620454016   10.84590375073521
C        -5.52780681129065   -1.44369062924671   11.40860092940579
H        -0.27562671755255   -0.45152016160421   10.70076561077130
H        -0.57947611848711    1.10096684485987   11.08089596182417
H        -1.25530522958139   -0.27588399519935    8.59607474367376
H        -0.11494569400067    1.06014522219619    8.80462931378817
H        -2.30163934054756    1.87051250745067    7.87832871677815
H        -1.93876057140729    2.58777352442830    9.46319976654441
H        -4.22974647591704    0.36946171366660    7.41946051396064
H        -5.44409512266636   -0.13217447836128    8.59035646955090
H        -2.85322322141528   -1.50867884566822    7.80436790965549
H        -4.45766981427981   -2.19880654246903    8.02049858927531
H        -4.43383502548475   -3.29180322602059   11.64734590217572
H        -5.34370561023466   -3.18528054025678   10.12459744129845
H        -6.39738833608477   -1.82890135265610   11.95420947609179
H        -5.89366987263351   -0.80134376949863   10.60541246818955
H        -4.50825392595336   -1.18856078622570   13.14677628399235
H        -5.19155657654272    0.18123401326270   12.59532698928586

