64
CSD_code = HELMIU | q = 0 | S = 0 | Stoichiometry = C30H21LaN8O2S2 | MND = 10
La        0.53536967498463    3.84775981913721    4.36238781120071
S         4.76379576192660    5.72821849923061    4.23910361127336
S         0.88276292023016    0.38739356467204    1.13997129004473
N         0.37627000303348    1.54586879093037    3.59832034834488
N         2.02708654174202    5.67247563374758    3.84443348461544
N         1.40798374269988    4.88288061636686    6.79309356319586
N         2.92202888470066    3.10832280837522    5.45198941901033
N         2.67329229625823    3.06089719413040    2.74631798289087
N         0.26010165156289    3.61042423134498    1.62622754046204
N        -1.28042984019998    5.34398334133250    2.92245740862340
N        -0.33292098778396    6.34397080797442    5.28638131648792
O        -0.24604287480983    2.69531532011370    6.35440701616594
O        -1.77808909803338    3.54790620356903    5.03259941825611
C         0.56707685045875    0.97530579004424    2.59513765645160
C         3.18639581027828    5.74570915037651    4.00402220333800
C        -1.44526449676008    2.88087028925947    6.04410343890849
C        -2.53513620795557    2.31023272996290    6.93849416567142
C         2.18217004688351    4.02172278085207    7.54090985013452
C         2.17161168037635    3.98146779569117    8.93761031689271
C         2.93167387071078    3.05327589530361    9.62018021257029
C         3.72349131081801    2.15168726153172    8.92209964013135
C         3.74842674552663    2.17153121455982    7.54138714617530
C         2.97811649529618    3.09288509867997    6.83077308559804
C         3.97672710545687    3.00241889146883    4.73377301295785
C         3.88157085111338    2.89199421873465    3.28460140244887
C         5.01118894000297    2.60468478795285    2.51355895619288
C         4.86583365939951    2.47678439962921    1.14281226927790
C         3.61043455552064    2.63828830736049    0.58592777058751
C         2.53160631390974    2.93629203029487    1.42572284494994
C         1.19264094686492    3.12028567263678    0.88482803580272
C        -1.04320639697463    3.72041393093739    1.19548457614675
C        -1.61479026658532    2.92170377095102    0.19985564569417
C        -2.94617212604193    3.06552793389913   -0.13442212574091
C        -3.73828524226057    4.00290319484911    0.51691647031939
C        -3.20062673885611    4.79392416152003    1.51166512437387
C        -1.85487432907547    4.66814932645591    1.86983531644194
C        -1.67186234588796    6.49138466601522    3.31491319759529
C        -1.13146800247680    7.09164488523290    4.52492727147647
C        -1.46534967752144    8.40973030006182    4.86279408637983
C        -0.94355969826042    8.95832460160122    6.02030335911168
C        -0.10742319288905    8.18241793999506    6.80351887193253
C         0.17778882360768    6.87277829660158    6.39810594521994
C         1.06706177407133    6.04162454599551    7.19652714721075
H         1.52300585972953    4.65113280350094    9.48284273377788
H         2.90081098840233    3.02158650470277   10.69877401328963
H         4.31285299360428    1.42380975779071    9.45909994529877
H         4.32983040576051    1.44317138422762    6.99549364779518
H         4.97911214540844    2.94972587894677    5.16659255010685
H         5.97445628312370    2.49142407648587    2.98584801753126
H         5.71863063110149    2.25289478535271    0.51937254763963
H         3.45406749104611    2.53373408009054   -0.47642119547010
H         1.07095147698297    2.94268632974876   -0.18559023263995
H        -1.02306672415582    2.15182801629069   -0.27086730589972
H        -3.37792895976536    2.43329410838323   -0.89568124969935
H        -4.78268946169130    4.09723571616646    0.26023180984526
H        -3.83520030245985    5.47368373756987    2.06048184304912
H        -2.41068360456612    7.09004173120464    2.77078056461034
H        -2.11691550449750    8.98460830349747    4.22268249433802
H        -1.18162667458277    9.97217935867621    6.30609361196533
H         0.32447566548219    8.57545363590824    7.71106267971663
H         1.43883952254037    6.48675112403025    8.12602113971115
H        -3.43196249291321    2.12507482687701    6.35543385969415
H        -2.76264082986965    3.03720248299900    7.71579840836275
H        -2.18432464374144    1.39530065809781    7.40569301217397

