71
CSD_code = HELPAS | q = 1 | S = 0 | Stoichiometry = C31H30N5O4Ru(1+) | MND = 6
Ru        2.38103983105154    4.13016638442835   16.40301078783664
N         4.14826289717739    4.73391798793403   17.10710981301387
O         7.21327371820046    5.55347127134273   20.61986993620765
O         1.54990664911489    4.93862606536537   10.97039414383024
N         1.58046088961088    5.86774548936246   17.09810242876474
N         3.11008220300684    2.41260419090581   15.92282890408953
N         3.25138914274260    4.91443421294251   14.66544012366320
N         0.67782926532853    3.66538458452507   15.65622582772456
O         3.45827107039221    5.58287875861127    9.96537181470004
C         3.43212303755444    5.30522175270151   12.32003348422916
C         1.66599164623954    3.48169639712727   18.19571264642260
C         5.01084317072320    5.27740475055652   16.20781574623881
C         4.76387430306114    5.70158708680118   12.47352648837492
H         5.32956244454990    5.99584354328343   11.60334861126080
C         2.72241408065496    4.92102125968367   13.44843089295964
H         1.68980901836366    4.60758991277959   13.36422692292395
C         4.53582883640793    5.30557615787612   14.82779478339303
C         6.24791154394813    5.79110025708159   16.60567430563376
H         6.91256306005293    6.22482972928742   15.87704394989355
C         5.31535769298781    5.70204242506321   13.73691603533440
H         6.34243785661335    5.99605276900617   13.87438971238091
C         6.61723891591579    5.75642959557295   17.93416258266911
H         7.56458168736836    6.14891823268035   18.26541937678687
C         4.51228154272846    4.70500702864174   18.38702072807685
H         3.82104420008060    4.26153868017666   19.09478150383077
C         2.83293674122299    5.30085492277507   10.95375120226587
O         5.20252844991971    4.68297669572130   21.10930190599223
C         5.72336046493656    5.19915583201920   18.84987314258441
C         1.58847846181057    7.02682237623262   16.44030663431944
H         2.01613814162527    7.01844931760165   15.44335501800577
C        -0.38091459818092    3.42502321006201   15.26483879677042
C         1.08011073901639    4.50727589806076   18.96888054489595
C         3.54621926293301    1.36655813743310   15.70779634204630
C         1.71865283482849    2.21265745347729   18.75975068181899
H         2.15454821612061    1.39411490650656   18.19993830019035
C         0.65991276720712    2.98094036852770   20.77768377846406
H         0.28052180714364    2.78223358856680   21.76806051590863
C         1.04688317552232    5.81937876129248   18.34097654681847
C         1.22733634280979    1.95953459176251   20.03080172789041
H         1.28661426663311    0.96284430027798   20.44318667843631
C         0.58299966043961    4.25237942540591   20.24994863384111
H         0.13894405286662    5.04128716005291   20.83747923329406
C         6.00159302322309    5.11072529313023   20.31490104335592
C         1.08189531757829    8.19891103982077   16.96493946730772
H         1.11403453864993    9.10976662090146   16.38999086877954
C         4.08595224653661    0.06864357522602   15.43997322623042
H         4.32804847227467   -0.02927771830241   14.38153544028129
H         3.35518520919032   -0.69383656556081   15.71049095735268
H         4.99003511599560   -0.08366101081155   16.02976102241843
C         0.51867609036549    6.97370623511198   18.92849860322221
H         0.09963572471771    6.92465441314553   19.91949792409405
C        -1.69463984623265    3.11455711357173   14.78852613297927
H        -2.08714829937441    3.94453616314739   14.20074916193041
H        -2.35772885031311    2.93041485969070   15.63419635800123
H        -1.65879969285963    2.22149369801643   14.16453959850443
C         0.53571166832338    8.16951826850586   18.24289333468015
H         0.13176085021701    9.06522660655494   18.68827665307667
C         0.87285575034890    4.91144125830341    9.70573816858709
H         0.03202494745728    4.23158364502741    9.85490350411374
H         1.55342845344836    4.50577229082741    8.95112859297230
C         9.01730543573496    5.97930425935967   22.13416275038017
H         9.67847989203072    5.33795674202095   21.55771234771294
H         9.31569624851989    5.94685750666116   23.17740317803114
H         9.11434933160911    6.99875065938799   21.77083977421290
C         0.39856412478398    6.29695677347186    9.29612778010086
H        -0.16247529226055    6.22518102795918    8.36940787938856
H         1.25097017032318    6.95278227777506    9.13766880510791
H        -0.24075080871352    6.72392056815256   10.06533540000837
C         7.58248189085658    5.50802200806624   22.00554905557607
H         7.46105546752252    4.48071614016350   22.36498655559151
H         6.89625332952152    6.14870078117463   22.56948518220214

