79
CSD_code = HELQUK | q = 0 | S = 0 | Stoichiometry = C30H42P2RuS4 | MND = 6
Ru       15.68005142471680   -2.34589152531586   21.51281134258302
S        15.92865609560451   -2.66418396447001   19.11645428928221
S        16.85725011652854   -4.35390460276600   21.74868619432032
S        13.73622332807203   -3.64417435291248   21.42999515225862
S        15.34330485825509   -2.32364940966454   23.92618491692157
P        14.36959544496071   -0.45157058827934   21.25456690843721
P        17.69745581158082   -1.21349880397716   21.63515441541326
C        17.03043590234928   -3.98771948583242   19.00560821418217
C        17.49660454637895   -4.70210166524817   20.11300158430677
C        18.45983533262311   -5.68813411328392   19.98290177239523
H        18.83116633759759   -6.18591250776413   20.86711759016490
C        18.94512439563729   -6.02097743716675   18.73357667858057
H        19.69731839505436   -6.78790482477071   18.63156765653647
C        18.45404033313456   -5.35855276173255   17.61339642713187
H        18.81982001815635   -5.62120249250857   16.63156717960909
C        17.51901153511687   -4.35878472981028   17.74451264962918
H        17.14765334715436   -3.82509252962629   16.88308806925337
C        15.61496126608825   -5.64251381237422   21.79338119742690
C        14.26970529857019   -5.33361893180352   21.68289641578030
C        13.31882442900832   -6.34179467774961   21.73425984397678
H        12.27356796933528   -6.09293634686227   21.63679784459875
C        13.71684281719192   -7.65307032627587   21.91142591492216
H        12.97502453697550   -8.43606836216811   21.95333331493207
C        15.06359626172583   -7.96163925861149   22.03113399616129
H        15.37504136003495   -8.98545589987728   22.17204329609244
C        16.01226291506369   -6.95826393131590   21.97721830488902
H        17.06128079057737   -7.18796031780561   22.08021329727429
C        12.97454304985252   -3.40932368074996   23.03243140928628
C        13.72147204827641   -2.88933401666270   24.09337655423474
C        13.09691063728829   -2.81156250019648   25.34622234974170
H        13.67433467810784   -2.43316085393898   26.17579560782860
C        11.78402520261210   -3.18928537479836   25.50688159073156
H        11.32248150645227   -3.11241312696084   26.48052034583966
C        11.04145859507774   -3.65220939191171   24.42572885024191
H        10.00451558906937   -3.92427354984350   24.54878753784549
C        11.64564283873928   -3.76443144364758   23.18853995224364
H        11.08799686094661   -4.11924129514027   22.33333243896010
C        15.01626873979978    0.74195778588901   20.00024507313478
H        15.97838932885799    1.09670730984937   20.38216947625210
H        15.22187933319933    0.13106100426409   19.11520401700314
C        14.13256890410099    1.92746636293814   19.63279778563820
H        13.24208127209520    1.61030512719007   19.09783444397453
H        14.68776109404388    2.60383020757409   18.98473479912280
H        13.82260290049786    2.48658770229600   20.51332982322305
C        12.65030304448573   -0.70844926213963   20.62558392509114
H        12.14280444241921   -1.36732164111511   21.33731287710436
H        12.13730814894680    0.25724282721428   20.63596202385386
C        12.61779702055109   -1.31905357182708   19.22964950517652
H        11.61045295193828   -1.65437016225671   18.98887563481540
H        13.29044214391176   -2.17287219885032   19.16510563965361
H        12.92858453636524   -0.59909313452028   18.47695616089725
C        14.08710219621065    0.62219566097757   22.74753535494490
H        14.87100343812724    0.34138534175649   23.45642384125845
H        14.24796706055975    1.66420576727529   22.45757762121664
C        12.73704793125587    0.47391450820057   23.44082936018751
H        12.74369047547490    1.04985478769834   24.36495840342596
H        12.54405042715904   -0.56499880512398   23.69762171615887
H        11.92047452341472    0.83849531234625   22.82289195055865
C        17.66306372849522    0.25704454151651   22.75419669129462
H        16.94942833948307    0.96042576151729   22.31489045277136
H        17.22142512919559   -0.11641352502333   23.68399134974160
C        18.98110821148701    0.96447967963927   23.04345449811064
H        18.78689331387894    1.86178268886215   23.62890753373783
H        19.48673219019339    1.26621634710408   22.12860061179545
H        19.65560146944249    0.33334229725502   23.61476307212485
C        18.41904222804182   -0.53174701876701   20.06453073487303
H        17.57017522297509   -0.39442557993268   19.38949015947231
H        18.85150948639089    0.44958760302405   20.27646655562337
C        19.44782070281039   -1.41946550084556   19.37265766137724
H        19.69130081676521   -0.99764107200424   18.39885099290959
H        19.05136830396885   -2.41927633001460   19.21271803994881
H        20.36760862258043   -1.49684115674483   19.94671483732800
C        19.13019288640199   -2.14737839677394   22.33559636788898
H        19.27198573743404   -3.03209926394513   21.70650677518821
H        20.02207187703448   -1.52078148231155   22.24304133262957
C        18.91120857317264   -2.56601871114386   23.78443392722287
H        19.66472900258679   -3.29174727539413   24.08572407701966
H        17.92808779681416   -3.01693508368073   23.91073546754434
H        18.97003057353954   -1.71264655813312   24.45491832468997

