75
CSD_code = HELREV | q = 0 | S = 0 | Stoichiometry = C38H30Cl2O2P2Ru | MND = 6
Ru        1.50590693874030    2.56930475242684    7.44685437717676
Cl       -0.61131228867643    2.47702882613104    6.36392497026371
Cl        1.51718353398052    4.94304858701719    7.87075513367929
C         3.14655562202205    2.86406564728298    8.25805866795820
O         4.12938322520381    3.16104280704168    8.75852736059999
C         1.66801264456726    0.73329908320063    7.34722868759294
O         1.82739164912446   -0.40049431213924    7.35603177051512
P         2.25714609336743    2.97969167485447    5.25250468141563
C         2.56804995964720    1.46199684111207    4.29938405098530
C         1.54987064708085    0.50980824598410    4.29243113368230
C         1.70355368763436   -0.66546575637734    3.58247190357643
C         2.87228256002265   -0.89963172020154    2.87479021825759
C         3.87923599629730    0.05091908529294    2.86686566596530
C         3.73051914547204    1.23308367746044    3.57175246129936
C         1.18920884408554    3.93409789806084    4.13118486683249
C         0.48466311394779    5.03098907333098    4.62100693164289
C        -0.31892629332779    5.77002957573307    3.77299440145038
C        -0.42380615379305    5.42440885039971    2.43571750602125
C         0.28211539311965    4.33859525478141    1.94520826915797
C         1.08726954604643    3.59138555807447    2.78596442504850
C         3.83783415818214    3.87077850130093    5.22516273587484
C         4.94581051941106    3.22599442642461    5.77423633112474
C         6.16161543194900    3.87612799936063    5.84465918253554
C         6.27650866793836    5.17870439796792    5.38167497419480
C         5.17583443855964    5.82495707338923    4.84629556748095
C         3.95526620831526    5.17602594873519    4.76539024995730
P         0.31500167180778    2.58555385596822    9.46703274001002
C        -0.25399557813127    0.94067885704380   10.00650427510042
C        -0.07433824782321    0.43585543802751   11.28958303450475
C        -0.56399992762549   -0.81808014669553   11.61114635904932
C        -1.23915951287038   -1.56915879689364   10.66381677541145
C        -1.43244231176258   -1.06315132437063    9.38829106386964
C        -0.94278546077898    0.18639769539830    9.05910860121998
C        -1.21679440695054    3.55072147791323    9.65620603252859
C        -1.65411187435378    4.47576156076479    8.71802336655844
C        -2.82408017390790    5.18160921235655    8.94212243207433
C        -3.55694819151898    4.97224196399160   10.09672368956728
C        -3.11905756010908    4.05257628787870   11.03783588688342
C        -1.95546732608324    3.34150310258787   10.82126947428538
C         1.36109899417009    3.17464456887746   10.82491940821761
C         1.17020052677879    4.41175586877493   11.42693325495791
C         2.05463657622030    4.84426543568340   12.40035681774693
C         3.12531369353339    4.05008664859036   12.77354830603627
C         3.32552064071381    2.81976080570969   12.16506678974052
C         2.45266714311036    2.38617251450277   11.18695207499582
H         0.63368062589881    0.70625926715892    4.83646796227240
H         0.91248269458074   -1.40038107485164    3.58155117192602
H         2.99623075126051   -1.82091942226512    2.32509110238314
H         4.78600427427953   -0.12575628516768    2.30683946157537
H         4.51535028462549    1.97600760255572    3.55290617149522
H         0.56490115992525    5.30012649295959    5.66568195213258
H        -0.86849832934934    6.61566903319764    4.15962900086862
H        -1.05775677684816    5.99865231644572    1.77598084986131
H         0.20272839921715    4.06665260717759    0.90263361180562
H         1.62942097632327    2.74117005270971    2.39712488193575
H         4.83905302767029    2.21068996563115    6.14213825160567
H         7.01849642689289    3.37330197747130    6.26833544096209
H         7.22522715011754    5.69059030363473    5.44591229358564
H         5.26446608073373    6.84202263334468    4.49383983097590
H         3.09411428155942    5.68321112420387    4.35405512884292
H         0.44927956025774    1.01688154290398   12.03641229938948
H        -0.41775490454963   -1.20851912465367   12.60791758742339
H        -1.61629861627278   -2.54796503151096   10.92097019595330
H        -1.96411562173584   -1.64387281868211    8.64929054573700
H        -1.09604342481188    0.59142220488080    8.06592587468680
H        -1.08637356783473    4.64954198064477    7.81670148361646
H        -3.16216846813407    5.89778288094811    8.20802049954416
H        -4.46995526335707    5.52382902559104   10.26734853693344
H        -3.68766800973783    3.88821803140390   11.94168197332941
H        -1.61447586277995    2.62253579791041   11.55416223935467
H         0.34222972757396    5.03643594398637   11.12285246530766
H         1.90950150028419    5.80905997211567   12.86356557286139
H         3.81319184857534    4.39273901111891   13.53230689474091
H         4.16809562847994    2.20559282739297   12.44710268989000
H         2.60782248414778    1.43503413796418   10.68733712156550

