86
CSD_code = HELSID | q = 0 | S = 0 | Stoichiometry = C31H49F2OP2Rh | MND = 6
Rh        7.87841163490890   11.63308647050230   16.70920984828734
H         8.12522211345891   10.31414005556701   16.08573737704702
C         7.98954204871143   14.77268868428141   16.87459411183571
O         7.40099270686627   13.72615888588051   17.55099727663479
F         8.99504849961682   10.93328619937055   18.16220957416894
P         9.60730942512433   12.78703216760483   15.73082022838295
C         7.60853554634715   16.08535920805256   17.16373453361355
F         6.75647438175369   12.37604026666049   15.26596625705089
P         5.89405652829301   11.11618349057782   17.74491827851933
C         8.14217542320295   17.12004448672132   16.41226327897663
H         7.84351653467971   18.13794221032938   16.59974406300897
C         8.97525816183216   14.50388055235202   15.91533974466852
C         9.50625131877510   15.57166212041408   15.20159644638857
H        10.25741656965778   15.38844185473656   14.45115199275095
C         9.07240876125820   16.86406946630328   15.42204312614137
H         9.47799034888181   17.67820371728944   14.84028864631719
C         6.09729875891198   13.91227758119358   17.95646731986903
C         4.32234114470373   15.37594405006820   18.63265304752182
H         3.95386004722217   16.35818700921413   18.87730078208897
C         5.65395729795375   15.19309068953991   18.29659430819138
C         3.45133741948641   14.30282750753119   18.67057101755642
H         2.41549412443197   14.45852502125172   18.93242079219783
C         3.91390161263770   13.03070685915024   18.39874317693914
H         3.23216412519657   12.19800568980643   18.45398214586139
C         5.23685417165380   12.80936750838681   18.03382551880502
C         6.69285545387388   16.29290229390970   18.35163509058317
C         7.53150304815039   16.08220151374898   19.63127087829113
H         6.89903774895280   16.18237815572471   20.51116937150959
H         8.32478439040380   16.82544953847897   19.68294133958943
H         7.98650620909501   15.09415745096817   19.64822641281337
C         6.08118012510139   17.69176277229743   18.39737538364650
H         5.45981864558384   17.80079566067249   19.28255161512471
H         5.47809268782482   17.88368571708203   17.51267674117373
H         6.86537266326364   18.44156708120954   18.46348405851688
C        11.22607322145968   12.96528611642755   16.71741236860638
C        11.85025347539420   11.57281958574054   16.78118111883197
H        12.71024453910273   11.57679690096052   17.44969157650391
H        12.18618952523533   11.24397173772085   15.79963602040429
H        11.12307576469214   10.85906252524881   17.16133343175737
C        10.80663916401313   13.40216231156754   18.12572924087797
H        11.66403289003236   13.34621785005518   18.79548944807151
H        10.03716013586556   12.74942984614433   18.52475702328907
H        10.44411789285132   14.43029463144891   18.12612347513975
C        12.24713704997282   13.98654163952619   16.21794037186377
H        13.01858575485806   14.09513194849316   16.98091931642850
H        11.79432506907945   14.96424981193450   16.06987886788304
H        12.73898303986762   13.67576596329830   15.30379763569967
C         9.91433567334000   12.51704408375650   13.86942351693850
C        11.26836496520668   12.95097295259760   13.31079443858661
H        11.27017925173542   12.76701556262220   12.23581576461867
H        12.07908358927043   12.36985298278834   13.74300886574208
H        11.46614014026472   14.00858294130998   13.45964558253347
C         8.79512078747238   13.19858440711195   13.07968825684280
H         8.79284042603433   12.82025185897119   12.05805503322614
H         8.91732773369566   14.27768824592542   13.03991445156858
H         7.82935482925626   12.97804110042426   13.52235532472066
C         9.78435887247662   11.00215661832843   13.67446769983274
H        10.00891455554604   10.73536733881958   12.64253336998494
H         8.76776326987254   10.68703874766504   13.89987546669464
H        10.46388992907071   10.45913257233705   14.32915802957204
C         5.97096966652019   10.50022130175141   19.54444224622181
C         6.65848285196618    9.13690035859244   19.49678501028407
H         6.85211961879051    8.77697869471712   20.50641006836656
H         7.60808423623187    9.21926744153808   18.97324753433425
H         6.03971557330429    8.40068819503338   18.98684608196516
C         4.66396508640555   10.40724079614953   20.33050632619127
H         4.91205077734418   10.20643222829694   21.37327509349016
H         4.02538019701684    9.60062062840553   19.99028033141365
H         4.11165759026394   11.34330700160035   20.30224070640159
C         6.86628810037341   11.50311696180270   20.28095966437071
H         7.11261758690224   11.11602865802570   21.26896358969080
H         6.36033642820023   12.46044724897298   20.40811249131168
H         7.79905994576606   11.65900382694553   19.74921396577410
C         4.56985785554154   10.21438281766181   16.70987316046359
C         3.46901464027252    9.48197156483480   17.47459346660393
H         2.78076750237825    9.04518771961624   16.75009106595002
H         2.89087336685090   10.14311154761802   18.11384514412632
H         3.87551635285348    8.66890783839519   18.07083154344963
C         3.93470357226042   11.20587864298771   15.73275485318931
H         3.39650693221714   10.65518585661890   14.96206793763307
H         4.69886229552498   11.80345448534812   15.24679614867239
H         3.23186086629213   11.87484055755241   16.22227284957236
C         5.35614913168132    9.17876257446749   15.89881456812835
H         4.67440252378289    8.56261344889081   15.31393448060862
H         5.94052300844216    8.52929638463864   16.54873819485792
H         6.03637306934542    9.68464100142843   15.21717399663748

