71
CSD_code = HELWUQ | q = 0 | S = 0 | Stoichiometry = C37H27OPRuS4 | MND = 6
Ru        9.35747956114283    1.44181264818310    7.83439787692413
S        10.88540736834267   -0.20268004883793    6.84586207373445
S         7.99265902084405   -0.41532627019401    8.36769483556647
S         8.19783065673145    1.56370306232828    5.77044965898350
S         7.53603618443036    2.78590645717954    8.73710152344573
P        10.55799467774698    1.23694251549071    9.78432127715573
O        10.71315968213730    3.94820546916999    6.94016255502896
C        10.26081606660278    2.96597436803900    7.32507357935003
C        10.21846622302405   -1.71571502503060    7.35488125912650
C         8.99700825798613   -1.85355915787876    8.01710361688557
C         8.54666978770953   -3.08825799348819    8.45278030127781
H         7.61729644394633   -3.15021082200487    8.99897968659657
C         9.28828301418988   -4.22387417990636    8.19781034729990
H         8.93641461894433   -5.18658225192203    8.53460827390418
C        10.49156900826186   -4.11159770980728    7.51087881950959
H        11.07726400921096   -4.99545006670120    7.30524684444801
C        10.95137748516569   -2.88231017872456    7.10044636684651
H        11.89095483696239   -2.78405486311232    6.57900068287109
C         6.84559022912765   -0.53642276903448    6.99529459019420
C         6.91213342440666    0.32234499746977    5.90995241032007
C         5.98705808310486    0.21723529176264    4.88128820866360
H         6.05357262259941    0.88940377460186    4.04005344367205
C         4.99239921347554   -0.73970129553444    4.94361222011997
H         4.27400016635379   -0.81769776394413    4.14209736333347
C         4.92184009371083   -1.59743720975595    6.03073673865097
H         4.14525331575079   -2.34502418171032    6.08296104638685
C         5.84121169424489   -1.49199611902776    7.05682586680081
H         5.78403332674546   -2.14455218272249    7.91381117535233
C         7.15846600983924    3.00665146756735    6.00420417843110
C         6.87389055807787    3.47437580815640    7.28934475762165
C         5.99445734341008    4.55808327372749    7.40093800192918
H         5.75752186081489    4.91589453244350    8.39107417725480
C         5.46233610307248    5.15735760568662    6.28180511866304
H         4.79408971454426    5.99822861628079    6.39502806335475
C         5.78921621186358    4.70079910016307    5.01036095099976
H         5.38737884461289    5.18449583018494    4.13367747707214
C         6.63825083973301    3.61931691963046    4.87677888155922
H         6.91311158221635    3.24958039473759    3.89971557199549
C        10.14856823697827    2.40890321079199   11.11543008278100
C         9.97903655627099    3.73511445610405   10.72715861682083
H        10.04701102540220    3.98733104865700    9.67593915968625
C         9.71315443951040    4.70845049028335   11.67072452317607
H         9.57466835259338    5.73405328721154   11.36272289261426
C         9.61848378054297    4.36477577774892   13.00974481683619
H         9.40427248485717    5.12262675865442   13.74893994370641
C         9.79690821462538    3.04861894101382   13.40137803177658
H         9.72652015777929    2.78096366929558   14.44590807774639
C        10.06454195703726    2.06928963318806   12.46098393763842
H        10.19977695804233    1.04382492823973   12.77639941178568
C        10.36979768561072   -0.40195848017726   10.53967954079481
C        11.32777817346179   -1.39536563809479   10.36603526915232
H        12.24892654625541   -1.16675053213219    9.84804896072963
C        11.09090245932167   -2.67037860386873   10.84747383518365
H        11.83413101009364   -3.44159886962078   10.70946734638620
C         9.90140147090153   -2.96130126410462   11.49440687796721
H         9.72096406897884   -3.95876965205742   11.86718078555676
C         8.93717778428165   -1.97814182397237   11.65477291549835
H         8.00529591160054   -2.20853200876913   12.15080171074442
C         9.16241631084106   -0.70381232135509   11.16998074898281
H         8.40936243024427    0.06932694834193   11.26917516872178
C        12.36281283071322    1.46300514310585    9.72512132636996
C        13.01779392235466    1.77524258862408    8.54158897675647
H        12.45283286737705    1.85320352557099    7.62190950616725
C        14.38960797482943    1.96214713410564    8.53932041790243
H        14.89546199955833    2.20075308942881    7.61575275863995
C        15.10973897792111    1.84105130563934    9.71524344547403
H        16.18005189390000    1.98607806706514    9.71164003879136
C        14.45812046087991    1.53179949207868   10.89973734343724
H        15.01969562785829    1.43709766276850   11.81777261420242
C        13.08963410338812    1.34564763714291   10.90842810725419
H        12.57705518437453    1.10674235593577   11.83027298967498

