179
CSD_code = HELXAX | q = 0 | S = 0 | Stoichiometry = C62H110Cl2O2P2Pd | MND = 4
Pd        4.03289102811729    0.16589895215396    6.76593667482554
P         2.46391488236303    0.45162625062326    5.16573881480463
P         5.38427318192232   -0.27146112601651    8.52524276620620
Cl        4.38860456234529   -1.91842898029118    5.88475406084891
Cl        3.70047508462210    2.28663620941621    7.52992077285029
O         2.67364598171044   -0.10303293760048    3.68062439813727
O         6.94722915989876   -0.26584604541839    8.15164024640657
C         3.93328366731200   -0.00487351816181    2.99937987247461
C         4.19558216404137   -1.34375227151552    2.32455461701268
C         5.39783485825004   -1.26064912629923    1.39256467516691
C         5.23339246290203   -0.20450655090792    0.28086522543228
C         4.96107839502212    1.11969271278371    0.96631347698524
C         3.85094415771322    1.13166516853030    1.98234572552126
C         4.03946214720277   -0.57152672587868   -0.61469742867527
C         6.55247081910221   -0.11912653131111   -0.53640766939651
C         6.78496099824738   -1.35674899649882   -1.41481799631251
C         8.01327280775283   -1.25083909295859   -2.32386010707699
C         7.92041543998000   -0.00914767883216   -3.21233213139646
C         7.83761949927293    1.18859320344103   -2.24761502419270
C         6.61038721973767    1.18697794396614   -1.34567820279018
C         6.72073612393232   -0.09794401647655   -4.15811050950539
C         9.19767842517042    0.36689433252067   -4.00667795161931
C         9.47520812100923   -0.34608026266209   -5.34144934494920
C        10.78169422895595    0.18634653759783   -5.95644740737187
C        10.89156724230605   -0.06300042683002   -7.45989658759603
C        12.18097227425626    0.53242839194733   -8.02174199883668
C        12.41434961473840    0.22868389538316   -9.50523829529534
C        11.37509882334399    0.90809374707620  -10.39393561930089
C        13.81666953493833    0.67908437775239   -9.91189898140776
C         1.08005316417963   -0.62638713965222    5.70888477171048
C         0.77628325548271   -0.33611156728382    7.17631034659985
C         1.69774590483569    2.11882826859068    4.92973384617689
C         0.55252014549817    2.12816057006167    3.92958411004444
C         5.62339538319508    2.23418186903997    0.69020096478642
C         6.66781650822117    2.35986722726476   -0.36832648330567
C         8.04292364479158    2.39871116440708   -3.15215824760621
C         9.06088182175769    1.90019146306790   -4.19206671255015
C         9.58166286576134   -1.86202827835570   -5.17847000203274
C         7.39745662977292   -0.47420754742259    6.80146512104501
C         8.87999883615029   -0.81876247099076    6.89396517544322
C         9.51268924164561   -0.91381899334022    5.53281022686243
C         9.32192103745265    0.28314409883516    4.62153402364307
C         7.80880399354226    0.58998476181996    4.57909740610057
C         7.19201062421107    0.78221152976515    5.95999165417862
C        10.18431619034313   -2.00196042916894    5.18658879548676
C        10.88116484789779   -2.18600667442771    3.88159411028773
C        11.10821849355104   -0.84918970771267    3.17978588830880
C         9.79744305619870   -0.04647869896587    3.17844964728762
C         9.91119823033087    1.20576966740045    2.29695198597375
C        10.43146497560459    0.92153083369125    0.88520572740000
C        11.78392825206112    0.20878718548560    0.93322282012900
C        11.54861138733131   -1.08167938868700    1.74006311424637
C        12.81809600272695   -1.89161653576781    1.50511487729106
C        12.27887456622233   -0.39237742136284   -0.40708635111880
C        13.01960267634377    0.51672754873418   -1.40461628984357
C        13.16386342985350   -1.58612175206631    0.03813481826306
C        12.22077340434876    1.76405181730023   -1.77685580269450
C        13.33711746781399   -0.29788854874352   -2.66965597544057
C        14.29494163753250    0.39106053737670   -3.64230752402209
C        14.82006313270275   -0.60081719163531   -4.67935480341734
C        15.66679478033194    0.03666771412595   -5.78571675126117
C        16.94836372830637    0.65707366733470   -5.23494368885241
C        10.08709157723603    1.48226426313025    5.20315885667092
C        12.86375289249707    1.10151174982096    1.54812756694487
C        16.01266376788955   -1.01577566448352   -6.83843654468246
C         5.50869216352168    0.84829351583897    9.97186365584982
C         4.22669463258685    0.92510793587103   10.78506474952391
C         5.11544371106487   -1.94803179403166    9.25852677179811
C         3.63326987068084   -2.29704712319693    9.30852087612322
H         4.73155155886097    0.20426159802199    3.73365819181925
H         4.37281126324985   -2.09211584662502    3.09903026156172
H         3.29980179266454   -1.63824188371746    1.77715702064955
H         5.55982389164924   -2.24241539239053    0.94691364524652
H         6.28256217954327   -1.00930031254463    1.98324766835092
H         2.88988760911257    1.03610026085168    1.46763912671008
H         3.84280691611827    2.08855319547891    2.50946051091202
H         4.07596117882049   -1.62087095256204   -0.89583433723674
H         4.03353220331747    0.03552491098895   -1.51628101738426
H         3.09968478617500   -0.40001425822040   -0.10003839315454
H         7.37346244187464   -0.07055604386897    0.18974481200089
H         6.91137869930773   -2.23049436669788   -0.77235723691516
H         5.91622653279617   -1.53708429735246   -2.04371968615263
H         8.07955028275851   -2.16471043077090   -2.91331707602647
H         8.91782826186517   -1.18632410263963   -1.71290646237517
H         8.71407992487868    1.12016600134438   -1.59216087566232
H         5.70619084437436    1.29396213193798   -1.94940581534538
H         6.72679257667496    0.72314144306453   -4.86802602089345
H         5.78082386877267   -0.06491524777125   -3.61749265009996
H         6.75129272304924   -1.03033590795040   -4.71656933940240
H        10.05424533718206    0.16480311492934   -3.35414037560281
H         8.65967556064012   -0.12490324895771   -6.03687167679611
H        11.62884488045250   -0.27920901296850   -5.44870628667169
H        10.85644013954126    1.26108910233217   -5.79464870142278
H        10.02873605397576    0.38657970039769   -7.95455824024847
H        10.87478625065992   -1.13406169492985   -7.67127810705908
H        12.17148390720295    1.61570670321853   -7.87708247818204
H        13.02179361485780    0.13282950293819   -7.45020102431511
H        12.34283140666282   -0.85546169130784   -9.65210961505309
H        11.59380832779900    0.71903829206356  -11.44273802195972
H        11.38443464834022    1.98403935940224  -10.23101697321673
H        10.37582985422768    0.53533407652372  -10.18587917010594
H        14.57205404539733    0.17732247604738   -9.31209570051688
H        13.92382128482223    1.75270203787319   -9.77025333978029
H        14.00366180933742    0.45162275635832  -10.95908549364811
H         1.43507239527362   -1.65440298049577    5.58624018152384
H         0.20454224005681   -0.48649092572483    5.07209564701420
H         0.09112453070989   -1.07596156686773    7.58651088987188
H         0.32997323731317    0.65053804690723    7.29341968384794
H         1.71073419568819   -0.36042648690392    7.76565759759205
H         2.50267969078486    2.78288229510425    4.59968339125514
H         1.37896488392994    2.47709123905002    5.90915659467658
H         0.28454784465554    3.15182945193312    3.67515283778027
H        -0.32967557499552    1.64095687477189    4.33747076960010
H         0.84027957223554    1.61005702613786    3.01688909385281
H         5.40206520869267    3.14071057303101    1.23961414314326
H         7.65792866305549    2.40169288958396    0.09904211963115
H         6.52607801347343    3.30266070926424   -0.90188028144205
H         7.10237452110200    2.68595769138277   -3.62306694005722
H         8.41887084321701    3.26160346075139   -2.60378483646030
H        10.02141913263338    2.39347689413765   -4.04755983800532
H         8.72242519159636    2.12843232148390   -5.20293476275754
H         8.61382004879439   -2.31180749354688   -4.97996423764140
H        10.25476042615304   -2.11030735165857   -4.36037970769422
H         9.97118061135661   -2.31272080232094   -6.08780095157853
H         6.85086697375517   -1.31321689298391    6.35037162853655
H         9.36590699732233   -0.04560038544914    7.49470122279463
H         8.99614038527796   -1.76418794424837    7.42585942244515
H         7.29983695234786   -0.24730391410881    4.09349888303227
H         7.63093517878674    1.48441254200073    3.98006072890226
H         6.10135237698671    0.98293863930710    5.84959391342338
H         7.63532430646789    1.63553222358774    6.47639005255929
H        10.25401343632361   -2.83187124266013    5.87776287398252
H        11.83583531490710   -2.69013631346839    4.04737348238417
H        10.27799033969274   -2.84091635753370    3.24287930565017
H        11.87873573636552   -0.30443647839096    3.73022999632555
H         9.03669361178596   -0.69887302071880    2.73138202925014
H         8.92716448907580    1.67254272886510    2.21251834290936
H        10.57944825655205    1.92771895323501    2.76095244600631
H        10.49545513857858    1.86763911052558    0.34730255578715
H         9.71724945123356    0.28377000810164    0.35787018181296
H        10.72829939034101   -1.61471679638004    1.24166560845506
H        13.61044480017873   -1.56205021971627    2.17748529606244
H        12.66348288091260   -2.95723376492238    1.66816744253570
H        11.39761295331130   -0.78731833491883   -0.92678259925304
H        13.96806800388214    0.83329135339188   -0.95858966219762
H        12.97027420683728   -2.45774871565237   -0.58625738613782
H        14.21982169244403   -1.33508992834901   -0.06423123431921
H        12.15086543522932    2.45602835776727   -0.94351819737308
H        11.21521532829312    1.49407580287392   -2.08638416106442
H        12.70423280539348    2.28874201668421   -2.59654298406726
H        12.40216180134309   -0.53022208300955   -3.18486791967129
H        13.79150435530952   -1.24429712640437   -2.37537728788248
H        15.12984694361710    0.81111373959424   -3.07908703653798
H        13.79132987797887    1.20861544201057   -4.16112906858323
H        15.41430297628350   -1.36736357423454   -4.17561817697512
H        13.96632049448189   -1.10287747382544   -5.14279811054259
H        15.07654521269964    0.82742420129809   -6.26358826885162
H        16.72732748923355    1.48190431961024   -4.56305704842249
H        17.56146247923882    1.03938185350802   -6.04824586272718
H        17.52639872186627   -0.08776799245815   -4.69162733279503
H         9.77304036614403    2.40924328906964    4.73078593803755
H        11.15730985511817    1.35551078435260    5.06019186445448
H         9.90921044401091    1.57810105928878    6.26920504743138
H        13.84007280394046    0.63347380102215    1.47207545111967
H        12.66825666664641    1.30083854735348    2.59662702760503
H        12.90591825744734    2.05701879717008    1.03206424291418
H        15.11041925438843   -1.45993973257931   -7.25433767925097
H        16.60923149663953   -1.81037868760171   -6.39487355172572
H        16.58474671767540   -0.57310345849367   -7.65118262854776
H         5.75348954088703    1.83508642770397    9.57141127208018
H         6.35359094603721    0.49866113950613   10.57200037907369
H         4.30540284310158    1.70682598074291   11.53802411773886
H         4.02297886901561   -0.01559557674841   11.29210440204479
H         3.38976845273390    1.16774178125188   10.13041326866293
H         5.57459877291840   -1.97916923807131   10.25067926568129
H         5.63849580397078   -2.65810491831840    8.61205969754146
H         3.48784212473800   -3.29513402700591    9.71749873431638
H         3.22250387200906   -2.28119546944068    8.29606703196786
H         3.07907294682442   -1.58739496737173    9.92085172514234

