75
CSD_code = HELYUS | q = 0 | S = 0 | Stoichiometry = C36H31Cl2N2PRuS2 | MND = 6
Ru        6.35252468054334    3.63529377905778    8.53837817138228
Cl        4.54982563534539    3.37301485684889   10.09432341750046
Cl        7.88431340618510    4.05229232910400   10.29806395513873
S         4.91756598994165    2.75732834464013    6.90432516010428
S         8.02174609198924    3.67126030425738    6.83570944993084
P         5.81367348015258    5.83168377033097    8.25625141555184
N         6.60107801711676    1.52003218741430    9.03386811415179
N        10.02372987573128    2.47906819349774    8.67886082050036
C         5.55850991894932    1.07447408063166    6.89262198027594
C         6.34319769425616    0.63923987909520    7.96221221063939
C         6.87231337881299   -0.64627921114480    7.91706915000576
C         6.61073866739062   -1.47529910512009    6.84236884519247
C         5.80548629749530   -1.04057401019010    5.80270960305518
C         5.27457790202830    0.23666111537396    5.82953028190525
C         5.67715070946053    3.32610163793148    5.38261471208444
C         7.00562208091950    3.72832049581297    5.36281816061841
C         7.56330771179403    4.21676399977530    4.19217538101906
C         6.79516289915678    4.29354174636266    3.04283889851774
C         5.47333038204455    3.88043115391514    3.06080884010575
C         4.91226365495924    3.39670529734217    4.23067663849775
C         8.77239477422416    2.05059159150164    6.65326984363672
C         9.69216577399207    1.66141443744199    7.64534603984246
C        10.31213656658663    0.41381976237626    7.49160411848586
C        10.04686461562301   -0.39490280708360    6.40813728063086
C         9.14874434780761    0.01458472467062    5.43620783098308
C         8.51937564035709    1.23981832771327    5.56183953820892
C         4.83027539586529    6.60991300938842    9.57567128783924
C         3.69995902699210    7.38732723794797    9.35159591260116
C         3.04198996925760    7.96759140660744   10.42194448950060
C         3.50613495843575    7.78219189176943   11.71304523241553
C         4.63998823331886    7.01837103601753   11.93783902362417
C         5.30221321904645    6.43714542283319   10.87399557396346
C         4.79125658223496    6.06779454271627    6.76893527313805
C         5.26775604480929    6.65211923303561    5.60182473501414
C         4.45762385479071    6.71721681962549    4.48145369215637
C         3.17585066916962    6.19444496566101    4.51495313671753
C         2.70412805194615    5.58753477050007    5.66919766010163
C         3.51072574383648    5.51531895049649    6.78822460331825
C         7.09967159370867    7.11264245099555    8.08176073879853
C         8.44251541393785    6.79255296505610    8.23069424874060
C         9.40553307328492    7.78202112036825    8.12594726744407
C         9.03227822291532    9.09088906167404    7.87550722479729
C         7.69071487502389    9.41635086105677    7.74002639651742
C         6.72573179367453    8.43425873289943    7.84735912042177
H         7.39561103374921    1.21926312308289    9.60172707136941
H         5.77944436783782    1.61563580259237    9.66734710684957
H        10.60650387234678    2.08001784843034    9.39664923424020
H         9.36138797185845    3.17315695539645    9.03081648180144
H         7.50173618457042   -0.98612157900707    8.72682776326012
H         7.03459211794492   -2.46723373953147    6.81947950074202
H         5.59599847469701   -1.69047161820819    4.96752373537189
H         4.65901584492958    0.59444795628581    5.01793369784900
H         8.59568352114714    4.53120904773203    4.19455339865152
H         7.23080295260014    4.67880444055760    2.13374248485014
H         4.87346504604894    3.94030387108387    2.16577856213614
H         3.87871806475664    3.08787772517245    4.26273742773353
H        11.01996602947406    0.09951583867083    8.24554989614732
H        10.54239568013675   -1.34996966765858    6.31882350854263
H         8.93754328193744   -0.60831798095995    4.58159865703360
H         7.82520372649498    1.55610897977446    4.79777745957720
H         3.32437592231174    7.53393828717726    8.34817407879573
H         2.15864069049778    8.56477290287235   10.24455935857024
H         2.98182699250954    8.23118913104543   12.54419987872571
H         5.00370044460353    6.86983665107127   12.94385321570612
H         6.18077368002555    5.82938749214798   11.04301338018974
H         6.26961323744590    7.05758817847563    5.57298714577587
H         4.82978749059493    7.17887719255677    3.57819488604007
H         2.54538581335573    6.25437943765685    3.63975889706960
H         1.70776142918360    5.17049509378567    5.69433413807077
H         3.16118278256507    5.03272634466558    7.69301014064913
H         8.72777290265809    5.77309313085763    8.45124246810691
H        10.44850307892406    7.52877926819415    8.24561599417988
H         9.78373582959107    9.86278658084039    7.79390800553039
H         7.39831870818659   10.44017505693025    7.55574599187465
H         5.67790591182107    8.68527688819948    7.75203095949166

