86
CSD_code = HEMFAG | q = 1 | S = 0 | Stoichiometry = C43H37N2OP2Pt(1+) | MND = 4
Pt       -1.20498953791288    1.79807419899001    4.72656782315975
P        -0.69603846525991   -0.40490618831932    4.38295546531121
P        -1.19787500885497    3.98959144601367    5.38166604400627
O        -4.16571792094516   -0.85958753415453    7.46454874223140
N        -2.92320343230706    1.75333945138401    3.41266946990572
N        -3.52315420012709    0.68209448700080    5.90978657371927
C        -2.66932951313398    2.30185062801218    2.24225491739627
C        -3.46749972047636    2.10815477487237    1.11188456089932
C        -4.56364685774020    1.29485188960464    1.21609612422079
C        -5.98298909850064   -0.15502527871087    2.61070700961877
C        -6.24567666943606   -0.71867634670636    3.82857498026795
C        -5.43272515401115   -0.45042427116474    4.93206278284163
C        -4.33408772768883    0.37747679640374    4.82648963482543
C        -4.01829670250963    0.96193468223027    3.56152781672279
C        -4.87289353033522    0.69506370117217    2.45318684295845
C        -3.48021504238369    0.08002163986787    7.14145198873200
C        -2.47566112893557    0.73805379290211    8.05923744172157
C         0.46427031878477    1.71533550657923    5.89927178536442
C         1.07506047602307    2.88774522769678    6.35704517827072
C         2.18437213688402    2.81905103739841    7.18934295960173
C         2.70530042517542    1.59288295961024    7.55954449384091
C         2.11338902259797    0.42846063392597    7.10693646617007
C         0.99265635367326    0.47857777766933    6.28756497518779
C         0.32415102486215   -0.80495423334647    5.85695638790701
C         0.54539437622291    4.22614947279213    5.90913257372940
C        -1.93228136727439   -1.70035615351560    4.13117584563120
C        -2.50152654962984   -1.79070522967192    2.86050302550652
C        -3.53939547747530   -2.67020296472262    2.62630433404194
C        -4.02774836767343   -3.45433457297633    3.66043085706361
C        -3.47033077500131   -3.36353839288738    4.92462279782408
C        -2.42765674092517   -2.48682842881567    5.16547949221047
C         0.45952975082937   -0.55866501726807    3.00050882941852
C         0.97437758395976    0.60905589981672    2.44682204064002
C         1.89062793051341    0.53882172309858    1.41408297031944
C         2.28945832516270   -0.69762131580979    0.93132876451058
C         1.77588227408218   -1.86285910842879    1.48043310499085
C         0.86145026825618   -1.79913068477667    2.51562341893964
C        -1.52690500750919    5.41487452249929    4.31147752926052
C        -2.37700431359452    6.45758420725894    4.65818306251190
C        -2.55336289737411    7.51509744984874    3.78240015759118
C        -1.89196395534754    7.53443438772652    2.56547508593247
C        -1.04337477775908    6.49447842746695    2.21662892219295
C        -0.86256929377629    5.43703205605245    3.08621361204737
C        -2.25952392505633    4.18781893897893    6.83636511456414
C        -3.63287910128719    4.06267272371180    6.61559921959333
C        -4.51868798643745    4.14135768469126    7.67217461762624
C        -4.03951086152836    4.33282219125779    8.96006453990942
C        -2.67670954890077    4.43699924977557    9.18589263269688
C        -1.78306639958201    4.35963747376459    8.13019221017126
H        -2.79378466012176    1.39511176248931    5.71449282296245
H        -1.79398666837957    2.93945102500294    2.18148673231728
H        -3.20384657763437    2.59000490870392    0.18467186272027
H        -5.20127668462752    1.10283531416080    0.36639773951280
H        -6.61432218568254   -0.34626419932683    1.75710890551127
H        -7.09408952354207   -1.37258010867015    3.95454626666827
H        -5.65936350210476   -0.89685712482484    5.88532400022268
H        -2.20989662043873    0.05029092247828    8.85700807806716
H        -1.57716834036559    1.05453968866434    7.52592926107262
H        -2.93746318344912    1.61581395400388    8.50869924132184
H         2.64582773358735    3.73041061931776    7.54003054715100
H         3.57164079795714    1.54503167186081    8.20007087620874
H         2.51786642304669   -0.53011893692685    7.39585255627807
H         1.05049963446946   -1.59110148079841    5.62925819537315
H        -0.32769390373341   -1.16471263551623    6.66024585932699
H         0.64276021378588    5.00295659694230    6.67256468029791
H         1.10291128770858    4.56540717989732    5.02721401312475
H        -2.11537070494132   -1.17196364710492    2.05925096182905
H        -3.97108369626390   -2.74245703164204    1.63955233779742
H        -4.84332622589384   -4.13681628848874    3.47858471495738
H        -3.85190230820162   -3.96866851348181    5.73187280729879
H        -2.01085301376999   -2.42076516609346    6.15905533399434
H         0.65040850514387    1.57055222142103    2.84609196993876
H         2.29455460788323    1.44278681632272    0.98380291496836
H         3.00273583554672   -0.75450945337471    0.12356605974676
H         2.09067494411805   -2.82278093876276    1.10045892934269
H         0.45332410720622   -2.70372627970361    2.94595223356251
H        -2.89125113136482    6.44694388847044    5.60826425050245
H        -3.20867092574384    8.32857244485599    4.05379888357901
H        -2.03492110372833    8.36188917211485    1.88797916664921
H        -0.52482670065493    6.51231383778920    1.26994566139171
H        -0.19424848315180    4.62217107224777    2.82967805056936
H        -3.99754046539067    3.91440593097992    5.60534045339915
H        -5.57962126299678    4.05105203454195    7.49570019016422
H        -4.72950863942228    4.39489656083995    9.78720428297535
H        -2.30539183262471    4.57688085353886   10.18957632347996
H        -0.72291895656469    4.42412200955098    8.32187761110681

