43
CSD_code = HEMHIQ | q = 0 | S = 0 | Stoichiometry = C10H23B9Ru | MND = 12
Ru        0.32918165555042    1.11769561746781    4.03892906118843
C         1.54909628389326    2.31988030601636    2.55078171784720
C         2.42670167764898    1.73711329062275    3.49312203486247
H         3.29406715676292    1.18213051385821    3.15893723880494
C         2.24078430314765    1.94829915934633    4.87781451692376
H         2.96753076540307    1.55082521374332    5.57926351294987
C         1.19782650243675    2.77462831796019    5.35623630499634
C         0.30313654486650    3.33342190619411    4.41538875741564
H        -0.47503666481231    4.00891365504875    4.75579667732517
C         0.48019610352847    3.11508815313557    3.03236884515172
H        -0.16118339202764    3.62919551894989    2.32450656889518
C         1.79812976694597    2.26005114353964    1.06071053193295
H         0.82552549560478    2.30322671827500    0.55601237671626
C         2.60762397978292    3.49951117450679    0.65458051333061
H         2.08223783980555    4.41335044273077    0.92546378871224
H         2.77511602439666    3.50381103770375   -0.41982757099465
H         3.57521211468086    3.49924988757925    1.15395326275739
C         2.51083199528273    0.98886205114215    0.60256891065392
H         2.51063942577375    0.94296557731075   -0.48405223893692
H         2.00297887658487    0.10785095408349    0.98634559941582
H         3.54664257497196    0.97573820506662    0.93500759102958
C         1.11926444722316    3.15075130464596    6.80699592928239
H         0.09283861193696    3.35866117755148    7.10193855025652
H         1.71292282569581    4.05053102777147    6.98611040435571
H         1.51003760122011    2.35604870736804    7.43902933427886
B         0.76912275460047   -0.95193639543895    3.56364292865866
H         1.83843474596992   -1.28548792446229    3.18746238364689
B        -0.70005020798665    0.27018146557818    5.75106541243458
H        -0.60868078221417    0.75086118485977    6.82491976052982
B        -1.53653651596746    0.73203554116671    3.00360870020879
H        -1.99558226299911    1.51908421622337    2.25182723521591
B         0.25190618883214   -0.99858160735450    5.17009835258436
H         1.03905215538953   -1.43107767563403    5.94031575327221
B        -0.54325627543675   -0.56565083287223    2.56747769333605
H        -0.35265050565543   -0.67919590981536    1.40479378514622
B        -1.93073016648875    0.60027338341558    4.64081074759389
H        -2.75895222642039    1.35529301862052    5.02064332053423
B        -0.67528410328831   -1.85416755660459    3.84910022380124
H        -0.69048447239359   -3.01774491327549    3.65757003802354
B        -2.08238549621526   -0.82539799439517    3.51034690312750
H        -3.08946226546728   -1.26347370128089    3.08056939421114
B        -1.57183773912260   -1.10560454219904    5.18655747528636
H        -2.21962534144100   -1.74101081815113    5.93990767323697

