69
CSD_code = HEMMUH | q = 0 | S = 0 | Stoichiometry = C34H28Cl2N2P2Ru | MND = 6
Ru       -0.51239168996210    3.23681712096477    2.98754211821193
P         0.89873771847613    3.65456625913699    1.18836495442002
P        -0.98502343465214    5.36250307700827    3.74509415702263
Cl       -1.61484533144291    2.19019790285741    4.77872799380254
Cl       -2.24614787132516    2.79871461590570    1.43198807357662
C         0.92046316615078    1.82563984249888    1.19531784857099
N         0.26273000114753    1.51884040460676    2.33229273935792
C         0.04098896082038    0.24692032724682    2.63497473532541
C         0.46512520390224   -0.77585474090786    1.79939660028392
C         1.12353012579126   -0.46868548522740    0.61817920101026
C         1.35478346679091    0.86706122223079    0.30315610925495
C         2.58413711461189    4.09116603555038    1.72261610413788
C         3.58505745708523    3.15457815006821    1.95394895026315
C         4.79297420132437    3.55473428797034    2.49893316187279
C         5.00750095233133    4.88355025449712    2.82312542310420
C         4.01327806942214    5.82200557689661    2.59322832353090
C         2.80630151568737    5.42812960228552    2.04953504783995
C         0.83173352588331    4.10538278096426   -0.56710701841279
C        -0.34222422152994    3.79426269674286   -1.25175187584250
C        -0.46329700625045    4.13386447813482   -2.58623513105535
C         0.57358533906432    4.78636407776205   -3.23559566693304
C         1.73416662916218    5.10476837577962   -2.54882395966829
C         1.86786831839256    4.77068767036052   -1.21290501046047
C         0.55585674500427    5.02515437680855    4.68804273966137
N         0.88758169601734    3.77625532684740    4.28951068485635
C         1.95427428556539    3.18865538561831    4.82200225570212
C         2.75022287524847    3.83381831900497    5.75287545712998
C         2.41633240715202    5.11412814843507    6.16792563647648
C         1.28172235810745    5.71790791300234    5.63228919835853
C        -2.05067048054960    6.12949192052710    4.99612122912788
C        -2.71133285189978    7.33385840527849    4.78017582427981
C        -3.54560524570228    7.83961749694110    5.76134091053320
C        -3.73306431078676    7.14359495711651    6.94439923966905
C        -3.09472136527391    5.92958299069528    7.14803002024004
C        -2.25815053281222    5.41609346346572    6.17578668833046
C        -0.54361174874579    6.70736293361688    2.60427112234429
C        -0.83547971943348    6.49436320899867    1.25935919152237
C        -0.46565736579512    7.43456912469386    0.31378672440030
C         0.19669377313146    8.58565784045837    0.70991122122306
C         0.47436259830661    8.80617101267833    2.05083785387608
C         0.10419554749181    7.87207412743786    3.00187321677701
H        -2.57440926921775    7.86702305667891    3.84946783063014
H         1.84648009061824    1.16097125515524   -0.61267715653636
H        -4.05709625754173    8.77723850164201    5.59846055116096
H         0.47656862881344    5.05210067654600   -4.27818356943271
H        -4.38888783080452    7.54222756168316    7.70448436218297
H         5.94880897024820    5.18870242143690    3.25529861755688
H        -3.25749361969442    5.37862396718272    8.06237697654697
H         2.53952369641826    5.61709141281525   -3.05525514925437
H        -1.78031458391058    4.45313796850552    6.30639336767527
H        -0.50665917473948    0.05759037957683    3.55101563019983
H         2.77160799750357    5.02253119669115   -0.67569368309261
H        -1.36101251854266    5.59019805493867    0.97085125125801
H         4.17751136497237    6.85965877758627    2.84420121730202
H        -0.68762785855294    7.26572365442115   -0.72955932750787
H         1.44266240523477   -1.25070053937580   -0.05394172297646
H         0.49562461434311    9.31697684611192   -0.02661708540090
H         2.02115536706674    6.15169453668814    1.87117323480951
H         0.98422380701299    9.70909738094780    2.35471194132235
H         2.16819016702597    2.17676363925989    4.50013478319496
H         0.31719559080445    8.04067756428215    4.04773827225253
H         3.42041115418670    2.11464514396815    1.70661738197757
H         3.61260465707259    3.32894310189934    6.15867103249180
H         0.25991481602933   -1.80048625437054    2.06641034784350
H         3.01493435400112    5.62892412020319    6.90319554078384
H        -1.15007689997560    3.30397057132679   -0.72097455908745
H         0.96366560747495    6.69747264824455    5.95514711519126
H         5.56864465557757    2.82379957303728    2.67527512384848
H        -1.37063080732987    3.89333129794446   -3.11986441865625

