55
CSD_code = HEMNIZ | q = 0 | S = 0 | Stoichiometry = C28H16F6I2N2Zn | MND = 4
Zn        1.08017000556756    6.82771669637140   18.68562082495563
I        -1.32002156529521    6.14669528557254   18.40800374994374
N         1.05574333332160    8.55782089840648   20.02418195371704
F        -1.52290623204531    6.58271998118920   24.34292018786808
F         0.22920592823210    5.67012263700267   25.19086599206422
F        -0.48736482460692    5.03572042546750   23.26469011981452
C         0.94025819224440    9.68045041538541   19.40599983434424
C         0.41932330295013   10.92765016079596   19.94977457831847
C         0.66365794344593   12.13786877993369   19.27153876510794
C         0.06422554422371   13.30170732474273   19.74685089542889
H         0.21276311174414   14.23410082882907   19.22593930971330
C        -0.75228417176944   13.28052116503139   20.86226968545226
H        -1.20836758244848   14.19486166162588   21.20956917355033
C        -1.00210224887192   12.08594957004815   21.51948967869978
H        -1.65880676016345   12.05954585146230   22.37463842187332
C        -0.42438592864647   10.91885105773935   21.06311690655275
H        -0.66163209398148    9.98695706031508   21.55169257080567
C         1.10286095076139    8.40397181345879   21.39929665931767
C         0.37804873629724    7.38797204164916   22.01981622853393
H        -0.32776145191337    6.79233780927310   21.45913716857567
C         0.54530161006217    7.16497574793430   23.37661303801261
C         1.43844682579892    7.91824948121881   24.12584274750428
H         1.56380610399231    7.72039525700612   25.17825465650514
C         2.17347773013689    8.91050823325134   23.49773425782388
H         2.88492854373537    9.49100563567228   24.06357632642612
C         2.00623101406353    9.16247586195034   22.15208431248773
H         2.59522321240480    9.92067942156739   21.65684410736603
C        -0.29627762164918    6.10876249448191   24.03978193425172
N         1.14323126540559    8.55683552086405   17.34813340721254
F         3.73054899458676    6.59573143554147   13.02787376659453
F         1.98241897622088    5.67634537879961   12.17894038549990
F         2.70180475960039    5.04291287924261   14.10433494773971
C         1.25906179759168    9.67971075984869   17.96563595734972
C         1.77898196265178   10.92677257512318   17.42037922202030
C         1.53334875919581   12.13758528194454   18.09709093726113
C         2.13128550975359   13.30152838908023   17.62013524573457
H         1.98169000555354   14.23441977066166   18.13985706778237
C         2.94749752525131   13.27993548549171   16.50451763873703
H         3.40226891929277   14.19440527505266   16.15582387238373
C         3.19848524658433   12.08484538152421   15.84871103687625
H         3.85478362089762   12.05815191764759   14.99324628206522
C         2.62229654316698   10.91763592370576   16.30675629204559
H         2.86038823157492    9.98546252435962   15.81915000567148
C         1.09688204515748    8.40294415968710   15.97274534478455
C         1.82631522091236    7.39053156147266   15.35180339814137
H         2.53466337915383    6.79782883825196   15.91233630729573
C         1.65984062854330    7.16784560767046   13.99480774319724
C         0.76335326585106    7.91773363543811   13.24614974149569
H         0.63879578612972    7.72001566162658   12.19361150134722
C         0.02396381913256    8.90632669129986   13.87487309732255
H        -0.69012315014027    9.48404095874589   13.30949174625325
C         0.19020409547929    9.15809365137706   15.22068926250361
H        -0.40210371231230    9.91327267474880   15.71658467473919
C         2.50598323864626    6.11599135176998   13.33055754871054
I         3.45707165853312    6.07540311164341   18.96641948422125

