77
CSD_code = HEMYIK | q = 1 | S = 0 | Stoichiometry = C34H39N3Rh(1+) | MND = 6
Rh        7.72169850388608    7.87210726436207   34.37719695464563
N        10.16095593852701    8.74201256801894   36.09915093232486
N         8.59811111353535    7.70480496787958   37.14243300572674
N         7.62806430836779    5.76251173336415   35.22182990223720
C         8.92402056945622    8.22954419341301   35.94132271243937
C         9.61643901718415    7.87700327248455   38.03859137334617
H         9.56319373087594    7.52730595092506   39.04851536462577
C        10.59851513005338    8.53619545691552   37.38351002649568
H        11.56449099358760    8.85738340720083   37.71253464553309
C        10.95201872743047    9.43502869051552   35.13900768386476
C        11.47296714020126    8.75361962102327   34.03583722524775
C        12.27965062696382    9.44976949326890   33.15010688169925
H        12.68896661832405    8.93154124337608   32.29581974873204
C        12.57666225008101   10.79360053521504   33.33598958428689
C        12.02838013231167   11.44894704107663   34.42967312662619
H        12.23681625598529   12.49787472522458   34.57772518673307
C        11.21485531683764   10.79159828899027   35.34049337589064
C        10.62080112586668   11.53856738522813   36.49643408062206
H         9.61955820941233   11.17924404311261   36.72739600323039
H        10.56454117878424   12.59889744789362   36.26603338973521
H        11.23729873563107   11.42534105989516   37.38800385153453
C        13.47561680146993   11.51865043376938   32.38711135355668
H        13.16348372596196   12.55337735096118   32.26999167253381
H        13.48707685459730   11.03745549286105   31.41280758848636
H        14.49446223606597   11.51993332204389   32.77467931833078
C        11.14315985880824    7.31247164923599   33.79671068848431
H        10.05194215458356    7.18930048278591   33.70998155492926
H        11.50371999078102    6.69537725413578   34.61942055001525
H        11.60710281699883    6.96353257129703   32.87882532190984
C         7.38013026503269    6.96927796219675   37.38333353835024
H         7.31613512148071    6.78160255068280   38.46338992038849
C         6.17159467875956    7.79965584493050   36.97756210197446
C         6.14146622593085    9.13719621147860   37.37563421905605
H         6.99654168257322    9.56455993927048   37.87995104375889
C         5.01931870023637    9.91532029981462   37.16561223470171
H         5.01315978054676   10.94515494131529   37.48858698131905
C         3.89937637856290    9.37085593515814   36.55697852608858
H         3.01741182970719    9.97339815938394   36.40369083935493
C         3.91506086119682    8.04580326786967   36.16192845709401
H         3.04295448067016    7.60978889032250   35.69867808746532
C         5.03905282679448    7.26277587896573   36.37302609093619
H         4.99405225871811    6.22023748078094   36.09857975296978
C         7.48660024996333    5.58728618770811   36.68085682926459
H         6.56044677636905    5.04727328961795   36.90376637489490
C         8.62852773372046    4.81247266486673   37.30147011008695
C         8.36694248665375    3.95026580076911   38.36006953412726
H         7.35108981876257    3.81869755462200   38.70445806787118
C         9.39487233156583    3.25614508494590   38.97222895252271
H         9.17564415022940    2.58548629131462   39.78862585561352
C        10.69912195790309    3.41766702021083   38.53523961820225
H        11.50093681498529    2.87438641615570   39.00984830565622
C        10.96921492982848    4.27786693464019   37.48537803099862
H        11.98317599254452    4.41020528005889   37.14002347583869
C         9.94064130013730    4.97278511843537   36.87333722013418
H        10.17227580494711    5.64613005895369   36.06049584164112
C         7.17153290258362    7.14950284457724   32.41860456933419
H         7.39681452787871    6.08002080038709   32.38569398553922
C         6.01104757876126    7.54999083860905   33.04407297933156
H         5.38361105113301    6.78457161366072   33.49892136688028
C         5.28563393155003    8.83365457989184   32.71959523311115
H         4.21641885778357    8.68245907376536   32.87358493782522
H         5.43096201400237    9.06319144418413   31.66353089922238
C         5.74138577465159   10.01608579508926   33.59666242743763
H         5.62795785968584   10.95341401470483   33.04289356872101
H         5.09541491246560   10.07997492790484   34.47293088034938
C         7.16857273189620    9.91054986857119   34.07023811890748
H         7.36594357793172   10.47850542692474   34.97969968014410
C         8.24842733295734    9.62112982930492   33.24078915799947
H         9.22596607382206    9.97272668897668   33.55634435432321
C         8.11830305390879    9.41935884578812   31.74693953384883
H         9.02917126308297    9.77610914098236   31.26477612693308
H         7.29544181764331   10.03077153624760   31.37711426637061
C         7.90765769613721    7.94300542560938   31.36580560532818
H         7.35811316626029    7.87550268947024   30.42184312271260
H         8.88107974632482    7.47554457838955   31.20279025913094
H         8.46575354002961    5.27093665761471   34.90846319582959
H         6.84297508912720    5.31990136840047   34.74892261658908

