78
CSD_code = HENLUI | q = 0 | S = 0 | Stoichiometry = C27H39BCdN6S3Se | MND = 4
Cd        2.80379252824859   12.21374773641409    8.90502021324924
Se        0.92083681363941   11.12980952159030   10.25197594898723
S         2.84751156456629   13.44422474442193    6.49147080876248
S         4.98256383388979   10.72502314721972    8.44850018356030
S         3.97086492166234   14.21595138234641   10.24222825144939
B         6.04225956745135   13.83853062483287    7.57171825375379
H         7.05368884433500   14.34134121090290    7.18658777599432
N         4.91936772747713   14.89166366404680    7.46416697788140
N         3.02625772723055   16.01370460455926    7.36089488934038
N         5.74641208055584   12.62164754066353    6.66752284198512
N         5.09239826399378   10.73818344794642    5.73119969912872
N         6.25702849512340   13.40041909810508    9.03595350772464
N         6.09784154871929   12.78084726954200   11.14414217872520
C         3.61365518933279   14.80853135178264    7.14692412454421
C         5.15345129604047   16.17182366417700    7.88652142165260
H         6.12623255209810   16.48050549012883    8.20653211364403
C         3.99670011476332   16.86348932563786    7.82811161847360
H         3.80929514281791   17.88124145743829    8.08895946175268
C         1.59900609292589   16.33329029972196    7.22356620218900
C         0.78583778710882   15.39823624820620    8.12663927279092
H         1.21401998634700   15.37624220026437    9.12999573382687
H         0.76594201962529   14.38516402924120    7.72771780959218
H        -0.23933423316943   15.75142854910440    8.19446401901647
C         1.34693828587117   17.77566887438313    7.66614563215874
H         1.90461410099658   18.48232606361420    7.05554801679046
H         1.60372027721477   17.91377345179536    8.71371839394452
H         0.28906431561174   17.99477316101152    7.54682433672859
C         1.19063543177458   16.18516436951147    5.75534247598658
H         1.75912815534788   16.87390021707171    5.13343164399859
H         0.13274997623400   16.40642535380139    5.64634883440462
H         1.37060707769222   15.17230250012101    5.40681177835375
C         5.25886306963325   11.39027722788655    6.91122930069533
C         5.87953668318038   12.74558542195112    5.31154361126717
H         6.24145676113159   13.65041703853198    4.87050505422234
C         5.47782803738517   11.59545759902907    4.73200415030611
H         5.44117541238325   11.34316968613532    3.69559086031315
C         4.51798237925004    9.39998561877438    5.53868825278713
C         5.41276401338114    8.36376040358769    6.22350104073738
H         6.41196733302069    8.38396869322796    5.79279813367984
H         4.99231925716040    7.37161264543158    6.08684048932172
H         5.48814450092776    8.56402237615110    7.28807925890130
C         3.09717852650062    9.38319803913175    6.11257706381715
H         2.52213649278749   10.21470066816257    5.70639029486549
H         3.10909346624157    9.45961919976750    7.19887474220095
H         2.60002912290715    8.45432737635410    5.84779845037383
C         4.44293057086205    9.07756131617433    4.04499860956762
H         3.79411310926285    9.77745889670857    3.52385286821430
H         4.02549463357264    8.08098911620968    3.92726360201263
H         5.42976929136225    9.08267059267108    3.58745964089955
C         5.46763086381091   13.42301257646984   10.12735532219544
C         7.40175414186547   12.73187309337796    9.37657511063285
H         8.18457962796072   12.57484549371645    8.66467881210314
C         7.30856431290875   12.34741849949151   10.66632281275864
H         8.01048581248157   11.80073857031031   11.25585927596304
C         5.55446678546127   12.50976874185702   12.48232486859885
C         6.54920298000994   11.66573385094603   13.28132826881945
H         6.71833603573153   10.70374834996016   12.80332703908173
H         6.13296156145373   11.48263179985624   14.26842868441246
H         7.49735775060349   12.18323933839144   13.41011134720367
C         5.33051701884993   13.83758110872968   13.21066730490365
H         4.92196647327606   13.64665781890645   14.19879057138577
H         4.63181464306644   14.46292904917943   12.66269830577830
H         6.27113176826112   14.37469423879821   13.31699262284481
C         4.24726356434113   11.72121402219087   12.34454771536755
H         4.38051692920516   10.88402118016485   11.65723628173762
H         3.43744771331673   12.35237462995547   11.98022022376063
H         3.95031600221763   11.32782289592269   13.31256825013474
C        -0.07482700434755   10.31339514239401    8.83644526520398
C         0.04471174165407   10.73051927300244    7.51666225907243
H         0.71597386845797   11.54646921343226    7.25653082923866
C        -0.69829566376735   10.11564791874650    6.52559385373748
H        -0.59620470032944   10.44751102466679    5.50179423741385
C        -1.57096351430490    9.08787135152062    6.84017850882542
H        -2.15003260257304    8.61089133146119    6.06310545027152
C        -1.69949706262879    8.67840257894997    8.15773358446066
H        -2.38183177636958    7.87989298913595    8.41202256416308
C        -0.95772342555298    9.28520667697347    9.15213855881847
H        -1.05149399154933    8.97092472600642   10.18198222654599

