67
CSD_code = HENLIV | q = 0 | S = 0 | Stoichiometry = C30H30Cl2FeN4 | MND = 4
Fe       -2.79913548300104    1.79091639681802    9.27339554817577
Cl       -4.72544010395922    2.23333818542828    8.81110636301945
Cl       -2.39791804676219    3.17644314096802   10.66485175607875
N        -2.12718336643411    1.91001126627510    7.42486151264927
N        -4.11760820941873    1.64118506929715    6.29221552332567
N        -2.97725191991544   -0.14934832936300    9.28664337548027
N        -1.01338986444326    0.64038308359676    9.85233660920569
C        -2.83866285215750    1.66344493481593    6.32398513953599
C        -1.72707791321952   -0.42372505617001    9.62583864728713
C        -0.73519373254628    1.91206751483151    7.31155555030442
C        -0.03856361580058    0.90484871254465    6.64088175461896
C         1.33866943732763    0.94330420115989    6.55918856122432
C         2.06458624629553    1.97655322523618    7.13914487905764
C         3.55735124475496    2.02098550236214    7.03834320068334
C         1.36778709952917    2.97941302461180    7.80392998311683
C        -0.00784397395470    2.95372172247934    7.89263218314313
C        -4.90246642239140    1.21876618814343    5.26028349349728
C        -4.56000471190081    0.14833825128006    4.42361527354801
C        -5.43498174396420   -0.28025465346018    3.44717068791558
C        -6.67152922364831    0.33027508989085    3.27144295785751
C        -7.61291126033923   -0.12295607614799    2.19805025012044
C        -7.01625430852696    1.38477959368814    4.11486751172797
C        -6.15807774480801    1.81913489952365    5.09920487218194
C        -3.96760870800543   -1.11885270246446    9.23190196932650
C        -4.95604338205314   -1.05538094286153    8.24644478563207
C        -5.93102728960810   -2.02636494557105    8.17734564975502
C        -5.96021971967044   -3.08623035726011    9.08048386476517
C        -7.03651214076276   -4.12402909738758    8.99605829720080
C        -4.98176406044172   -3.13957719654830   10.06481879615174
C        -4.00065333924684   -2.17141822668556   10.15082050295970
C         0.35297903987484    0.64753423481208   10.04294579148243
C         1.19903045181835   -0.34713599763618    9.54620993587240
C         2.56049390266832   -0.26790112339121    9.75425499881194
C         3.12290421059235    0.79582045156106   10.44965453783091
C         4.60169388620588    0.86073797439538   10.68211983523222
C         2.27750391191978    1.78820682221967   10.93385239139399
C         0.91547869403192    1.72401332524957   10.73170314579255
H        -2.25235889512192    1.56878240349639    5.39662502051802
H        -1.35757158098979   -1.45140681981047    9.69825737518973
H        -0.58576755686764    0.08169810227801    6.20225339268876
H         1.86100576026640    0.15112385405708    6.04158246699041
H         3.98880019988580    2.44240688143297    7.94266713965259
H         3.96499972819797    1.02552428456283    6.88160172983298
H         3.85756583052995    2.64697108097404    6.19715199229814
H         1.91429928741657    3.79162037576072    8.25988549639642
H        -0.54475515894994    3.73486557070504    8.41073129219051
H        -3.61067972855764   -0.35078774142393    4.56130547994150
H        -5.15525529561579   -1.10811531999549    2.80997613980466
H        -8.63794943646009   -0.13408417217638    2.56348455432029
H        -7.57004275758355    0.56138163753615    1.34971789429058
H        -7.35310698746159   -1.11796032547305    1.84467238096935
H        -7.97872299885104    1.86210706839801    3.99612883227201
H        -6.42651258937158    2.62574900869598    5.76272418647999
H        -4.94653275603898   -0.23527231849408    7.54740608261427
H        -6.68545817603639   -1.96323533538003    7.40656377192053
H        -6.83753217520010   -4.95047822810315    9.67355546593691
H        -7.99947733788624   -3.68667269214003    9.25891275087610
H        -7.11528449321354   -4.51137360798175    7.98160278560768
H        -4.99004487663730   -3.94690948108038   10.78350741182517
H        -3.26134277775752   -2.21727910894506   10.93756029747237
H         0.79002695501312   -1.17073194539556    8.97985021806449
H         3.20267208480788   -1.04389373085201    9.36141111089148
H         4.92794478969511    1.88770855321579   10.82889083584924
H         4.86363327647504    0.29453061293654   11.57682516215602
H         5.14656674260454    0.43125692586731    9.84421432421246
H         2.69627120899765    2.62592755753502   11.47314013796732
H         0.26045472764365    2.49779880228066   11.09883413501333

