67
CSD_code = HENLIW | q = 0 | S = 0 | Stoichiometry = C21H34BCdIN6S3 | MND = 4
Cd        3.71949593273746   -7.32328949931506    4.19752682400088
I         5.46504738311458   -5.27626371950570    4.33546466101937
S         2.51201960047934   -8.17138929027225    6.40170437610690
S         1.55766759754688   -7.10881583532952    2.67613177289102
S         4.53368652148340   -9.68775364419898    3.31323107582845
B         1.24749748735477  -10.22402558198045    4.00376575936979
H         0.47484303304211  -11.13102846544268    3.94399043823672
N         0.55653912441942   -9.06059423854813    4.74816238410153
N         0.01126864483861   -7.24498171084362    5.87087826152607
N         1.61349879874803   -9.81677826540628    2.55971469797131
N         2.27743191464663   -8.83489868938043    0.70244597034773
N         2.49337270615093  -10.71231962154256    4.77473477277801
N         4.47869487805530  -11.03686831791853    5.67342249618533
C         0.99734607510719   -8.14699431710089    5.63354687520750
C        -0.72908505237550   -8.72252095765172    4.42311540458723
H        -1.29303083727359   -9.29925298846365    3.72055716325715
C        -1.06773167446573   -7.60924738101425    5.10593358114738
H        -1.98583040188938   -7.06527666980049    5.08953134266943
C         0.10262667139439   -6.04291973968418    6.71168481667187
C        -1.20066689815216   -5.24756954190244    6.61822099712944
H        -2.04919554596054   -5.83168120708761    6.96765884236463
H        -1.38191880611627   -4.91041827152531    5.60032607790147
H        -1.11668951195888   -4.36974534872889    7.25349654261718
C         0.32420668703502   -6.46475380377190    8.16669177093347
H        -0.50824013455751   -7.07298465299680    8.51545577706325
H         0.40021790796548   -5.58177044668958    8.79466920242145
H         1.24078196778515   -7.03889946814886    8.26679028623810
C         1.24967624292140   -5.16044325246365    6.20513190862812
H         1.17466818463675   -5.02746645343620    5.12448145432754
H         2.21857139084378   -5.59644786206701    6.44488081964504
H         1.19837979162280   -4.18350272519771    6.67758826835660
C         1.84668329701427   -8.62760687126443    1.97278276826758
C         1.90581352294210  -10.78691706799563    1.63987118779286
H         1.80785554248134  -11.82491901932629    1.87900078626298
C         2.31567506456820  -10.19132437652041    0.50074628625800
H         2.62905804876275  -10.63971068786281   -0.41566869193009
C         2.71879147298873   -7.81053879399925   -0.25473996537192
C         1.53233914846949   -6.90915249833740   -0.60672832223001
H         0.73532813249860   -7.49336457684335   -1.06279822493191
H         1.85144601796690   -6.14400703857516   -1.30852830519504
H         1.14166954466210   -6.42103271994674    0.28146539831943
C         3.22817313510443   -8.48232875930526   -1.53109662357674
H         2.44712200333215   -9.06722767601787   -2.01189431702688
H         4.08666990805278   -9.11698580071667   -1.32412923571138
H         3.54144900366605   -7.70915583010025   -2.22770820008780
C         3.86762916387137   -7.00535919766503    0.36409525611589
H         4.61927023500711   -7.67864944158262    0.77978861539772
H         3.50709906156250   -6.34352025792641    1.15041179444135
H         4.33836501163546   -6.39082050633640   -0.39812915232193
C         3.81146536419836  -10.47713279571500    4.63236272875392
C         2.33228074065692  -11.43095487703204    5.92818650016932
H         1.36175703536333  -11.73109128987758    6.26321427453963
C         3.54507045325274  -11.63050491964876    6.48460796186070
H         3.79279606067494  -12.14095985322954    7.38857140054237
C         5.92018859771377  -10.94519588228208    5.94543150729869
C         6.23817893135609  -11.62599234086760    7.27783464190242
H         5.72789913966838  -11.13261632214859    8.10172950122606
H         7.30825315687320  -11.55687431098950    7.45496654142786
H         5.97104966455468  -12.68033142702796    7.25967970481697
C         6.32037141938087   -9.46828629850812    6.04463674570408
H         5.63453613907916   -8.93507720619884    6.70526807140045
H         6.31612523070665   -8.99157255978091    5.06532336679734
H         7.32468140826064   -9.38571374416759    6.45054338818977
C         6.68753501989267  -11.65695063723376    4.82803425950850
H         6.40561650148391  -12.70728152646731    4.78484238695776
H         7.75480061040650  -11.58821647045903    5.01789000621412
H         6.47860753270900  -11.20052445062875    3.86480133668869

