81
CSD_code = HENMUJ | q = 0 | S = 0 | Stoichiometry = C28H41BCdN6S4 | MND = 4
Cd        4.86046400416534    9.62177188556890  -20.99899067846086
S         4.14693862010216    7.34591766676416  -19.67148957175991
S         2.35058812031219   10.23451624296326  -21.77757692637364
S         5.64399093490249    8.29807905771715  -23.21502150734545
S         6.21230608645898   11.62191764128226  -20.49936068874709
B         2.56792910007195    6.95648573700393  -22.65287199265495
H         1.84805460205241    6.16613426684230  -23.18378909753577
N         1.96304162720031    7.29170491471707  -21.27409141925253
N         1.52965757386860    7.92625190454182  -19.21028217328286
N         2.64203664815296    8.20747032687480  -23.55288645390078
N         2.85540901704629   10.20679304783565  -24.45194667187841
N         3.95645921379337    6.29891617853373  -22.50189567514389
N         6.08552393841236    5.77562441515848  -22.29600145004670
C         2.51002144202593    7.55035048305654  -20.07152234577431
C         0.61757636230693    7.51299165776552  -21.16516396388364
H        -0.03539967727946    7.38412813808500  -22.00236146263169
C         0.34593224918460    7.90447275030116  -19.90313861544716
H        -0.59333962685365    8.16651306384086  -19.46949509131565
C         1.70059558227591    8.36604685456025  -17.81960613967905
C         0.35090794965533    8.79731550902413  -17.24290921176609
H         0.49869449459081    9.11318515811065  -16.21347726024475
H        -0.36136252964403    7.97526129481848  -17.24029743469650
H        -0.06083440210843    9.63722418140809  -17.79732395245966
C         2.24653352880084    7.20057721142690  -16.99012198822460
H         3.20332185100706    6.86695327193230  -17.38126484370141
H         1.55083948079355    6.36397372646662  -17.01056752949378
H         2.38324365024873    7.51700091066660  -15.96000360392124
C         2.65021247163045    9.56909277150125  -17.78665273521999
H         3.67318364115813    9.26772791868757  -18.00679052963539
H         2.63759348586601   10.02104991160681  -16.79877444483369
H         2.33710666200331   10.31615730445255  -18.51724729313049
C         2.65017118285794    9.52910930284007  -23.29323782625527
C         2.84690884349454    8.05559080706589  -24.89741235279005
H         2.89196914834321    7.08554989098490  -25.34597153039565
C         2.98141887563592    9.27755229096678  -25.45303857837413
H         3.16063920046926    9.53406886304157  -26.47343314690480
C         3.00859364880157   11.66006727064666  -24.60490758453822
C         3.32117239156600   11.99557417232868  -26.06439222012187
H         4.25899903516393   11.54306629130098  -26.37769948382256
H         3.42013696511942   13.07387647776804  -26.15765252139199
H         2.52001598198198   11.67570810623855  -26.72716232521626
C         1.69966840236747   12.34683856286001  -24.20649348591909
H         1.44633510935113   12.12028841204118  -23.17504985768891
H         0.88606593320928   12.01302749320529  -24.84771096363628
H         1.80728606231701   13.42289182464245  -24.30795125050594
C         4.17636292630333   12.13543039497576  -23.73393355290693
H         5.05253004902499   11.50637902210685  -23.89867803431706
H         3.92124172154559   12.11109655564890  -22.67588825829142
H         4.43412882699024   13.15921046700751  -23.98968797116408
C         5.21418735455977    6.76196852595065  -22.63306204146437
C         4.04159040885167    5.00553016363457  -22.06491443197234
H         3.16362712709100    4.42500066726006  -21.87428212662102
C         5.34427916153849    4.67967805493880  -21.93466416194885
H         5.77626247315709    3.75850045464527  -21.61222789189969
C         7.54930762111640    5.87762523688699  -22.23440966442313
C         8.14111334290520    4.55888430926014  -21.73303123244382
H         7.79835150716295    4.33224830346557  -20.72628321706875
H         9.22343107057735    4.65428038492956  -21.70609246016813
H         7.89488305912309    3.73413667117321  -22.39815155021560
C         7.92483543415836    6.98773897779807  -21.24821864488342
H         7.40457296999371    6.83681615527892  -20.30323826411369
H         7.66240120310275    7.96897186485698  -21.63947462525286
H         8.99502042956314    6.97742625761404  -21.06275140339275
C         8.09416860386576    6.16398291327260  -23.63581182649524
H         7.82722547329513    5.35866473033808  -24.31737470956343
H         9.17657871070538    6.24568384239438  -23.59634705103791
H         7.69031858214203    7.09541919391327  -24.02108575689854
C         7.65774059260871   10.86344721034665  -19.85763162997656
C         7.62032568872480    9.68671664533624  -19.11563311539449
H         6.66690753468535    9.19815476514792  -18.91895203085006
C         8.78708063700754    9.14148604893354  -18.61356987539062
H         8.73692692202373    8.22575432165678  -18.04030505282213
C        10.01533428824620    9.75238663563711  -18.82623266130980
C        10.04350535099696   10.93704285767418  -19.55483679205111
H        10.98901463346140   11.43240134981499  -19.72715424569398
C         8.88658030787693   11.48900928208848  -20.06275593246081
H         8.91601435434260   12.40912345396962  -20.62681971333497
C        11.28501347278000    9.15165869684228  -18.30012619767843
H        11.90658027458902    9.91424334770219  -17.83409865780867
H        11.85894999680846    8.70708687997970  -19.11437891014227
H        11.07380100608553    8.37610018814667  -17.56766042844183

