131
CSD_code = HENMET | q = 0 | S = 0 | Stoichiometry = C42H68B2CdN12S6 | MND = 4
Cd        0.00005298480395   14.78559681161653    2.09789276448107
S        -2.10717829225097   13.46371357253170    1.23050169927113
S         1.27121638478583   12.73336594785808    3.11495525457570
S        -4.64858245231893   11.62094375233256    5.14064180232679
B        -1.66801616817534   13.00377095133735    4.51751952574429
H        -0.74997922564634   13.73184964969716    4.75022262969219
N        -2.80415921832595   13.80853315267106    3.83264795276124
N        -4.23061072489886   14.70001924751112    2.41717365138433
N        -1.22900667966286   11.83633060706613    3.60965162274828
N        -0.11751119443093   10.55979790098226    2.20616892454690
N        -2.17291469621490   12.42348424470030    5.84718695068995
N        -3.30690163119931   11.48415804359926    7.49490071874428
C        -3.08494692981980   13.98762291324014    2.53408388057053
C        -3.76284897033701   14.46327222838883    4.54894268289854
H        -3.74376192685364   14.49635522025047    5.61770108917117
C        -4.64677287062737   15.00865063577026    3.68591703674481
H        -5.52634202543210   15.57510499590258    3.89534350815995
C        -4.91859149324346   15.06815218066213    1.17547279490325
C        -4.01990959422070   16.00970757287044    0.37017314068892
H        -3.10863894570415   15.50240042846152    0.06287109696835
H        -3.75527695440612   16.87291580500120    0.97693895657073
H        -4.54300522295595   16.34840884090925   -0.51967961327838
C        -6.22659843594944   15.79172552524639    1.49982296849415
H        -6.88561263160393   15.16294819288386    2.09362681274931
H        -6.73436383324020   16.02541699715006    0.56747284950495
H        -6.04140504267131   16.72567915513638    2.02506315693534
C        -5.24324311988673   13.79186286283122    0.39484583995185
H        -4.33275479041748   13.27392629034704    0.10895081613659
H        -5.79896304809804   14.04133938182592   -0.50478918950596
H        -5.84476488087817   13.12309238152841    1.00679815219896
C        -0.06292028036860   11.68328400356427    2.96059999350978
C        -2.03982444246778   10.79714593988786    3.25016112854740
H        -3.04121429050512   10.71656023841191    3.62418347552602
C        -1.36289832783482   10.00875523223244    2.38878762364512
H        -1.68308703358427    9.11255959337513    1.90587893548500
C         0.88780117209788   10.10206233995774    1.24154213404642
C         1.04030701334936   11.18236747292156    0.16628131881606
H         1.40238408055152   12.11076764718347    0.60245732993103
H         0.07808980970789   11.37769056642187   -0.30476927704822
H         1.74652121128151   10.85791814617580   -0.59261863314761
C         0.42579197686843    8.80423748628134    0.57670472019272
H        -0.48317435454979    8.95780121363132    0.00050066282407
H         0.26250137103550    8.02001300289838    1.31243201563704
H         1.20280751145506    8.46886739796804   -0.10549466665895
C         2.20883247873912    9.83673673540140    1.96807348095814
H         2.55529837181026   10.73386044354697    2.47201318567343
H         2.96279274606369    9.51916366170631    1.25308850905775
H         2.07800241691998    9.05175686657071    2.70992616997506
C        -3.35613841078547   11.84215260751778    6.17602480932990
C        -1.38358893654568   12.41483677868873    6.96871611229619
H        -0.39322409403267   12.81944855273105    6.95149895329740
C        -2.06912312928064   11.84357570187498    7.97824282017967
H        -1.76310883911572   11.67312725138448    8.98694338665271
C        -4.37913974944321   10.84407674433375    8.26052802582440
C        -3.93165973893520   10.61499476059385    9.70543457312043
H        -3.69943953921063   11.55484368826693   10.20161390031576
H        -3.06692976529876    9.95671238402292    9.75204063494461
H        -4.74494241199868   10.14040659392551   10.24852289329578
C        -5.60605757626493   11.76128140980938    8.26168946267390
H        -5.35785182594608   12.72371686102883    8.70552145755146
H        -6.40805979815426   11.30618657722392    8.83573582184896
H        -5.95440414440954   11.92348293963118    7.24569226916646
C        -4.70859970213383    9.49123979576090    7.62272617997180
H        -5.04922124173484    9.63187636272010    6.60101373497272
H        -5.49408043621921    8.99712700821434    8.18730898085764
H        -3.82647165686004    8.85386573910614    7.61360833558376
S         2.10713423165637   16.10740636199096    1.23057749895304
S        -1.27120959280646   16.83761013441160    3.11491990219801
S         4.64868758080634   17.95011968459201    5.14080595877481
B         1.66805356437306   16.56725341988292    4.51754319709600
H         0.75004336590846   15.83914046219820    4.75022282825197
N         2.80416376898669   15.76246754955864    3.83266583954407
N         4.23058477750162   14.87098176287913    2.41716080993148
N         1.22902256724912   17.73465329122182    3.60963117230208
N         0.11750353631107   19.01119057052929    2.20617089968693
N         2.17295499133130   17.14754027088323    5.84721622094246
N         3.30689092978640   18.08687249335673    7.49495658278950
C         3.08492237327580   15.58338698221317    2.53409822631709
C         3.76285045869419   15.10770604422623    4.54894136555057
H         3.74378729447971   15.07463203153433    5.61770004498646
C         4.64676860987885   14.56234604197725    3.68590007153747
H         5.52635276884886   13.99591000475243    3.89531506103606
C         4.91856756830011   14.50284845154256    1.17545718688921
C         4.01992551607815   13.56124673063486    0.37016365037986
H         3.10867358803238   14.06856101563415    0.06284256988506
H         3.75526854818783   12.69803931988937    0.97692539043948
H         4.54302919694647   13.22255347431193   -0.51968701625175
C         6.22657712016793   13.77927437848538    1.49979084404637
H         6.88559148351070   14.40804489396140    2.09360245630209
H         6.73435405153982   13.54556288738311    0.56744854330814
H         6.04136709457954   12.84533146086619    2.02504161407606
C         5.24328979458629   15.77913814649171    0.39486046547894
H         4.33280090748869   16.29707991641229    0.10898281788652
H         5.79897106895788   15.52963455761954   -0.50479184379554
H         5.84484758635630   16.44790907385280    1.00678682971147
C         0.06294031026057   17.88767424156993    2.96055877456980
C         2.03982574375373   18.77384949308259    3.25014280950453
H         3.04120361074987   18.85446242246793    3.62418610928736
C         1.36288739145696   19.56224232263298    2.38878606826031
H         1.68305235244709   20.45846394881007    1.90591367803319
C        -0.88781739886578   19.46892962082011    1.24155841537682
C        -1.04029064192906   18.38861238547519    0.16631023599782
H        -1.40236150242776   17.46021749168868    0.60250459085401
H        -0.07807121563187   18.19328799658888   -0.30473716440793
H        -1.74650756218812   18.71305307213339   -0.59259048569996
C        -0.42583270632250   20.76675671146102    0.57671268656596
H         0.48313727619316   20.61318852517176    0.00051659606562
H        -0.26253993273754   21.55097814619858    1.31244221977289
H        -1.20284787547063   21.10212367484318   -0.10549166272487
C        -2.20885522961725   19.73424695211702    1.96808350664550
H        -2.55528727363636   18.83712094706990    2.47204196074603
H        -2.96282524271955   20.05177710804765    1.25308831460472
H        -2.07805435562193   20.51924943008853    2.70991740006062
C         3.35617273655447   17.72887550236071    6.17609126767866
C         1.38359717396477   17.15619102065785    6.96872379109047
H         0.39323170786227   16.75158106877635    6.95148131615573
C         2.06910154849466   17.72745563245485    7.97826742997370
H         1.76305916351726   17.89791393922252    8.98695605776601
C         4.37912750840659   18.72693902934166    8.26058290427691
C         3.93162666002942   18.95603603541015    9.70547934511975
H         3.69938895275183   18.01619326920702   10.20166277808155
H         3.06690800707920   19.61433513853196    9.75206857744344
H         4.74491812902878   19.43061435476182   10.24855969469123
C         5.60602935791395   17.80971612695977    8.26168471429607
H         5.35780210390919   16.84729407368003    8.70553038815644
H         6.40804492852995   18.26479329089291    8.83572804542693
H         5.95435210664815   17.64749998895081    7.24567495944619
C         4.70863639902370   20.07972879709524    7.62271158733146
H         5.04924540781463   19.93905458923581    6.60099398905237
H         5.49412543605637   20.57383620306272    8.18728864762849
H         3.82652337279427   20.71712080541883    7.61359133064212

