78
CSD_code = HENMOD | q = 0 | S = 0 | Stoichiometry = C27H39BCdN6S4 | MND = 4
Cd        1.82027137129677    4.15373808392576   -0.82835041868309
S         1.84069001737418    2.88439399094645   -3.24365047183908
S         4.02210213191993    5.61514920462386   -1.37716585750089
S         3.05340534040329    2.15860021264389    0.49885370951548
S         0.02489215806158    5.18245472054889    0.52522471362837
B         5.05478389170955    2.48650665539891   -2.23090149377802
H         6.05332444013945    1.97136895965978   -2.63294317734794
N         3.92416291689367    1.43895863320785   -2.29348040523938
N         2.02381945543379    0.32631400218494   -2.33955486618994
N         4.74382919792686    3.69033598875693   -3.14666641440381
N         4.08087318179866    5.56313488755168   -4.09682036629405
N         5.30893716951488    2.94835276026837   -0.78090470255630
N         5.20963957494443    3.60009383183324    1.32053442877009
C         2.61281724400821    1.52475070564051   -2.58477035083053
C         4.16040518256060    0.16469610540351   -1.85544297944363
H         5.13782748380097   -0.14461523334358   -1.55066463071111
C         2.99905581588777   -0.52142796203201   -1.87897956306936
H         2.81189002484924   -1.53365362862423   -1.59729467467101
C         0.59379663730051    0.00996870625880   -2.45092280367177
C        -0.20345762421572    0.96079765602797   -1.55017014916950
H        -0.22248015245192    1.96899642129517   -1.96140625191586
H         0.23703035688548    0.99343094823049   -0.55247643524114
H        -1.22957286493064    0.61389287902099   -1.46586355547035
C         0.34351745185137   -1.42496997309365   -1.98372685029358
H         0.88915817453710   -2.14217694787377   -2.59281340821441
H        -0.71679801351661   -1.64189333748766   -2.08340084120761
H         0.61634962128241   -1.54909612966624   -0.93848978890103
C         0.16498527300433    0.13824575391626   -3.91516622975138
H         0.72022965287349   -0.56326874212592   -4.53468255476065
H         0.34626607376392    1.14469781610772   -4.28104568487159
H        -0.89568573487414   -0.07779125294367   -4.00558675286372
C         4.26645833919626    4.92709175767006   -2.91090775233560
C         4.84880288598670    3.54578419337522   -4.50276509357809
H         5.19747611726932    2.63314276022788   -4.93826293998100
C         4.44140024519328    4.68967678890559   -5.09086465625816
H         4.38465281644895    4.92613763669382   -6.13009455738278
C         3.51232559265026    6.90244178713529   -4.29849354525557
C         3.42251647126117    7.20829804901944   -5.79487332015645
H         4.40392486574093    7.18838055602865   -6.26343052096565
H         3.01333019850275    8.20743930847649   -5.91935235056809
H         2.76112811666251    6.50904256967912   -6.30064525766439
C         4.42072519932958    7.94189029455175   -3.63710781086429
H         5.41396294399304    7.91238171596257   -4.08080436068761
H         4.50955434888881    7.75277533936458   -2.57161368043493
H         4.00289774498169    8.93445359244630   -3.77910473161032
C         2.09877607640866    6.93303617816539   -3.70808301301622
H         2.12361805021913    6.86617036334615   -2.62139665494821
H         1.51497290701936    6.10044850419145   -4.09895270793134
H         1.60358878829328    7.86203588535934   -3.97593617355379
C         4.54936159306735    2.94504228725093    0.33136149712339
C         6.46444544212050    3.61795738711367   -0.48248104627265
H         7.22827780855894    3.76146002630921   -1.21744416797244
C         6.40790724739772    4.02213549572347    0.80343579053172
H         7.12801739928500    4.57460972582852    1.36497492825584
C         4.70479017834173    3.89316464267713    2.66880958368384
C         5.72606298656796    4.74130881067477    3.42908807199157
H         5.88984346214512    5.69479770557763    2.93255637960117
H         6.67345824255102    4.21853728916226    3.54111840648667
H         5.33680228868225    4.94242237602475    4.42367419824897
C         3.39950025895379    4.68827794431860    2.55389691380121
H         3.52447320093893    5.52179018169157    1.86086085652613
H         3.12427778902781    5.08660063922388    3.52632843064725
H         2.57935082364160    4.06184623874868    2.20684670790845
C         4.49207003352245    2.57692282589278    3.42097891325038
H         3.77113348273804    1.95135176421798    2.90288594681995
H         4.11691196066710    2.78391082848109    4.41911452089497
H         5.43087414464498    2.03257935429294    3.50445761878092
C        -0.96140799417097    5.98558325946195   -0.67599196098512
C        -0.90406730190065    5.68311642304452   -2.03454316248992
H        -0.22308639718632    4.91231666269150   -2.39202839555850
C        -1.71749256095853    6.34840276559503   -2.93224061558342
H        -1.65759727733215    6.10373005873636   -3.98348544836409
C        -2.60527961540485    7.31626952109167   -2.49312479465814
H        -3.23872858393643    7.83345687492092   -3.19853999573031
C        -2.67621557319346    7.61182329221271   -1.14050369771738
H        -3.36965516416814    8.36129531497504   -0.78625620994427
C        -1.86457009147886    6.95567401354411   -0.23827852172683
H        -1.91483494122212    7.18130329367933    0.81634720662476

