49
CSD_code = HENNAP | q = 1 | S = 0 | Stoichiometry = C24H20CuN2O2(1+) | MND = 4
Cu        0.00069399684049    0.00003264183765   -0.00180744826055
O         0.57416297483191    1.59038930208116    0.44164042344708
N        -1.67964818451956    0.69468971231839   -0.68795958483232
C        -1.44120594486462    2.89013379807587    0.31786172090319
C        -0.08293928810654    2.68461798451328    0.65296543460852
C         0.65328053394207    3.75916371168424    1.22572594225283
C         0.06242060581137    4.95590033108172    1.47312761985182
C        -1.30779277431787    5.18662657075896    1.19712899312255
C        -1.90088873494374    6.42683794011723    1.49375890430262
C        -3.23180271703359    6.64228143038618    1.24885581025181
C        -4.00635782710777    5.61327095141661    0.71048406028604
C        -3.44731509051497    4.39349209246147    0.41042638926082
C        -2.08334716415938    4.14659779990162    0.62708948079618
C        -2.10784911556019    1.88861211334703   -0.40410297810795
C        -2.49139768335197   -0.16676603757389   -1.51855130696027
H         1.69409540820520    3.58442215415839    1.44671266263812
H         0.64103934601742    5.75857051225592    1.90655189806583
H        -1.28734910381436    7.20473939277796    1.92209205762352
H        -3.68476628044938    7.59454248313441    1.47453883838725
H        -5.05800694569819    5.77642606378378    0.53111988792448
H        -4.08993369338302    3.62166293083868    0.01653800307249
H        -3.07952640085898    2.15438922959983   -0.80953875217921
H        -3.34199501157681    0.38307462887395   -1.92033536659659
H        -1.89367418501868   -0.55572333385904   -2.34275533333720
H        -2.85224788488813   -1.01230441878451   -0.93228564231184
O        -0.57411011147938   -1.59042162960963   -0.44149224764524
N         1.67920658213758   -0.69495723154405    0.68871079941742
C         0.08276673907332   -2.68489481202780   -0.65230157010035
C         2.10748650520708   -1.88884689008392    0.40491582253558
C         2.49099959793088    0.16646877406159    1.51930081018004
C         1.44107677418024   -2.89031302160436   -0.31737074796341
C        -0.65330184732956   -3.75921413907250   -1.22563672530594
H         3.07960841257272   -2.15430998266589    0.80971846016724
H         3.34150301705520   -0.38340807857520    1.92123321483588
H         1.89325166355976    0.55556622943499    2.34339272558523
H         2.85201183920414    1.01191959964156    0.93297246029582
C         2.08338846430652   -4.14655613313623   -0.62711009178908
C        -0.06234807278754   -4.95585481714737   -1.47325866716850
H        -1.69408398245092   -3.58443357079646   -1.44673055439013
C         1.30790176343721   -5.18652876268385   -1.19734068797181
C         3.44740512510439   -4.39335014788141   -0.41062610959691
H        -0.64093010260475   -5.75851111045087   -1.90676158622356
C         1.90108481880950   -6.42664322308630   -1.49420991594978
C         4.00653870982514   -5.61302347193585   -0.71094491237739
H         4.08998004656116   -3.62153368857762   -0.01664891513261
C         3.23203436930200   -6.64201475375360   -1.24942645998251
H         1.28759266192312   -7.20451389636410   -1.92266118887628
H         5.05821866720686   -5.77611376159759   -0.53169180077379
H         3.68506952377472   -7.59419146573054   -1.47531382597937

