41
CSD_code = HENPOF | q = 1 | S = 0 | Stoichiometry = C19H17MoN2O2(1+) | MND = 9
Mo        2.64508124806784    1.71701683396177    2.29260755648461
O         4.79725286733672   -0.25383032839052    3.29057032882695
O         2.13846141649072   -0.71182525221258    0.44340312650962
N         4.06042900266439    3.04421575577898    3.22515848583826
N         3.71574588470767    2.63118753077183    0.73295328353516
C         4.01786885063582    0.48769448076944    2.91180955552177
C         2.27147099448092    0.22487960705253    1.07711453924962
C         4.24603372756455    3.11890671127279    4.54369678449670
C         5.18359357844611    3.94525635773469    5.13346604397926
C         5.98237993228244    4.74173198844354    4.32288874741187
C         5.81117095413904    4.66120076550018    2.95552950962314
C         4.84511284072454    3.79777162131668    2.43243256705461
C         4.60674939053312    3.60816572442592    1.01027578238945
C         5.23379438497412    4.35343942324733    0.00959325984236
C         4.94253304268731    4.10004350774880   -1.31490396816944
C         4.01576934379407    3.10251738972407   -1.59850796662652
C         3.43852567218870    2.40700646501911   -0.55746078595596
C         0.81344967799780    0.76582648084788    3.32589020896648
C         0.32618147393706    1.32284941754945    2.11823160554666
C         0.63003802536907    2.62978988132179    1.64694948980201
C         1.36084664206737    3.61707881567879    2.31697352123566
C         1.15192598439642    4.05256865019167    3.74381568003950
C         0.74633953760322    2.89072156039073    4.63878448506533
C         1.45017745360167    1.59023368408788    4.26825902865552
H         3.62542814383077    2.48420134941080    5.15686416112491
H         5.28739710990945    3.96034700628863    6.20592586155373
H         6.72484792172533    5.39823518168176    4.74763769520995
H         6.42671115971462    5.25220833770139    2.29867585152063
H         5.93656453179392    5.12706273257507    0.26922802391156
H         5.41708391116913    4.65978916860699   -2.10407375554082
H         3.74794981168357    2.86476519739103   -2.61484788758391
H         2.72318767183159    1.62527982444054   -0.77015157715948
H         0.68775085149046   -0.30336389039909    3.48580843850085
H        -0.29809555196209    0.70132403117954    1.47763991747320
H         0.35987655022830    2.81861521274944    0.60778911619771
H         1.61242700410661    4.47529007169319    1.68562671572333
H         2.06245135566707    4.53004134825529    4.12101435220796
H         0.37322844980616    4.82477748221125    3.75346715984899
H         0.95411318768916    3.14086886701600    5.68011126051233
H        -0.33365106323290    2.73248383067833    4.55024059897248
H         1.84069702785721    1.05422717628786    5.13241319820418

