71
CSD_code = HENQEZ | q = 0 | S = 0 | Stoichiometry = C35H24Br2F3NO4PRe | MND = 6
Re        8.40412372179766    5.84807840140366    4.88683526217176
Br        6.68578979737823    7.72757991122627    4.69183253260492
P        10.17082718826613    7.51176506537152    5.20539036449162
Br        9.93506967808937    3.81491427320759    4.86288255248962
F         3.85308625183324   -0.29353217128774    7.83794292882408
F         5.69914978674867   -0.16990977540886    8.93722754703496
F         3.82184018612809   -0.05975931785600    9.97136380242037
O         4.40305742710174    4.58120442540225    8.33730482934200
O         3.31958994637769    4.82767234313366   10.24895698390759
O         8.61292955308335    5.95135899177873    3.08844653692005
O         8.19530891627348    5.72452176965540    6.51825823476706
N         6.80284038316419    4.36542107908037    4.25336295134634
C         6.19067422192144    3.71571597495709    5.32518042487359
C         6.26732230050381    2.31953478405317    5.43546301465306
H         6.80305076331717    1.75667114056720    4.68605520735381
C         5.72002597597085    1.67899325981031    6.51888666816942
H         5.80453544602862    0.60712808531922    6.59235654501877
C         5.06890961821793    2.40663012412152    7.52310051274262
C         4.45177580963240    1.83357594003690    8.68939189316156
C         3.86151772198483    2.61903727902984    9.61209784748191
H         3.38778923779461    2.22342346243616   10.49648976995067
C         3.82394046945401    4.07318470973500    9.46265191769018
C         5.00387472544194    3.81028463646881    7.40871288364816
C         5.56215571205192    4.45931956030785    6.31487499242751
H         5.49297129479199    5.53510645223144    6.25691066243403
C         4.45730580250482    0.33351152740359    8.86343999076664
C         6.59946647520339    3.97048953375261    3.04622758438746
H         5.86116836683926    3.18292602672911    2.87545574001154
C         7.23254747950394    4.48583583766464    1.86961936897430
C         6.85505159368134    3.99149836265025    0.61383064530441
H         6.08647769650671    3.23339065168157    0.56727996988261
C         7.44412946124975    4.45434091586335   -0.53870225705232
H         7.14128830205868    4.06262575113048   -1.49693974085288
C         8.43615431094663    5.43071745090245   -0.46839945714021
H         8.89875840498741    5.79127837326905   -1.37476457510541
C         8.83520736182794    5.94033889821474    0.74511440106969
H         9.60418765953749    6.69617501202536    0.81314902388247
C         8.24624822843031    5.48402221593676    1.93403944897098
C        10.66759095602967    8.24776259123627    3.62221932248856
C         9.67237034295022    8.85643370123546    2.85711558221889
H         8.65500741072349    8.89662208402980    3.22060753293451
C         9.98549095260377    9.41945062546098    1.63403657144948
H         9.20820878415265    9.88432923495376    1.04619482787727
C        11.28979644237430    9.38241249915720    1.16542478473684
H        11.53243187013474    9.81510019255310    0.20629777026084
C        12.28291185494745    8.79466796909291    1.93157641442760
H        13.30186388890697    8.77474085855074    1.57454120072636
C        11.97871987487154    8.22849846890711    3.15778339971478
H        12.76168851395404    7.78266238416381    3.75324601473263
C        11.67098582201852    6.89171735951119    6.00866073318000
C        12.02231570725501    7.32163466529168    7.28510741051109
H        11.41374784494836    8.05373879165677    7.79607706977772
C        13.15048997923347    6.80653457649881    7.89776530792590
H        13.41916149867145    7.14162430379923    8.88848510119727
C        13.92595744115672    5.85908144727735    7.24987439611924
H        14.80022873463436    5.45364731337904    7.73648585356640
C        13.57420680870293    5.42281391684423    5.98259862544872
H        14.16650200369078    4.67364704041091    5.48032876328479
C        12.45015383749540    5.93290182681244    5.36130873182730
H        12.16649369169690    5.56941224371748    4.38429453860276
C         9.62674615187835    8.91018237883688    6.22228308151251
C        10.08952135426123   10.19672756174714    5.96560088058653
H        10.76238277698033   10.37684541520850    5.13868054509709
C         9.67704339313182   11.24344986076468    6.77044825389476
H        10.03004298602640   12.24362907942038    6.56792347902106
C         8.81034694170052   11.01229857274423    7.82616447751520
H         8.48486706437470   11.83522898954351    8.44440999087356
C         8.35457123421542    9.72950848714701    8.08671393565724
H         7.67489211544654    9.55002453763448    8.90533998204813
C         8.76145653095197    8.67752654188734    7.28812510544146
H         8.40115791322205    7.67167351854485    7.47235330637734

