44
CSD_code = HENRIB | q = 1 | S = 0 | Stoichiometry = C18H22N3Pd(1+) | MND = 4
Pd        1.37545457471336    0.23620064955568   12.65955716428596
N         2.78172178610068    1.08078018180493   11.44135523712342
N        -0.14593822444729   -0.63620726384400   13.52187265120370
N         0.97219842234081    2.01786862041664   13.86541933992501
C         1.86472521773950   -1.37314096800896   11.55977534256163
C         1.82041587927527   -2.73209340502987   11.93696690881488
C         1.60641055076621   -3.15060637410835   13.27021510822102
C         1.56804809337000   -4.47897714354209   13.58788914319948
C         1.74056570968937   -5.45106545655113   12.58880030103809
C         1.99941276616731   -5.07795150526410   11.29998156480084
C         2.07413461431191   -3.71572634890687   10.93980083778805
C         2.42455574075243   -3.30287638740902    9.63917218527877
C         2.59444655173698   -1.98029688789425    9.31831977130055
C         2.31769757189054   -1.01015367003900   10.30995274967809
C         3.04608369108157   -1.56160631293033    7.95324934780961
C         2.53244914308508    0.47005214135821   10.11060815457973
C         4.13574896709433    0.75516394747624   11.90404806542249
C         2.63618412552368    2.53548817916411   11.34341606991465
C        -1.11560380219361   -1.21376337453933   13.74178022403280
C        -2.29387966339101   -1.94888598296001   14.05494906943010
C         0.67725712900542    2.62800818874891   14.79260100463439
C         0.32434802550034    3.41860142344714   15.92195133463023
H         1.52342236583090   -2.38974824220461   14.04423067817245
H         1.41852360709402   -4.79244600714390   14.61043259175690
H         1.69227381568200   -6.49610528752339   12.85405834416728
H         2.17095117972982   -5.82304892427336   10.53741335870097
H         2.59848664443007   -4.06237687459465    8.89136106045062
H         2.36462272896969   -0.82743230083128    7.52671331986714
H         3.08971004555512   -2.41980224507684    7.28907457069020
H         4.04025726304877   -1.11678968328903    7.99638878673714
H         3.37640103601901    0.67868932768265    9.44010132011523
H         1.63110551576815    0.92846857272127    9.68227620944126
H         4.29099037544896   -0.32495015579845   11.87429396433089
H         4.26778367420924    1.10227086139243   12.93250795245967
H         4.88835216637897    1.23909935511115   11.26984939529092
H         1.59821151338598    2.79212872275886   11.10877267521007
H         3.28452492653034    2.93647848200474   10.55512831485871
H         2.91435023605063    3.00520627060760   12.28876330607530
H        -3.16113597970998   -1.48145839302132   13.58903561168238
H        -2.43841464051094   -1.98147701166130   15.13489339179753
H        -2.18860368951017   -2.96606498660979   13.67613770421787
H        -0.76045511026059    3.50374424461886   15.98643441770284
H         0.75584603722561    4.41492177635186   15.82293835577099
H         0.70315941849926    2.95268024782421   16.83171309483500

