37
CSD_code = HENWEC | q = 0 | S = 0 | Stoichiometry = C16H14N2O4Pd | MND = 4
Pd        1.92230599385173    1.63529678232946    2.21725566482905
O         1.05074909181462    3.44895898069429    2.61045610616777
O         1.30852942257852    2.45673770310789    4.56082096423269
O         3.74229665784337    2.51483504206709    2.55844064116138
O         3.27515158569750    2.87596921752889    0.43513472151967
N         0.22015176410708    0.74902858944725    1.81011478205811
N         2.69091740424508   -0.13814404353270    1.87807824645359
C        -1.00735396609089    1.24183156220442    1.76595038637530
C        -2.11191401483604    0.46121909297158    1.42025796634149
C        -1.94831460750843   -0.87268435252063    1.11378064992402
C        -0.65610593905721   -1.42071033465723    1.14868881510039
C         0.40020314685095   -0.55650486899819    1.50211676206129
C         1.73676231358813   -1.03808469899932    1.54446295044193
C         2.01613358284195   -2.38821667614221    1.24992220330228
C         3.35818631288419   -2.79507274289578    1.31921898041529
C         4.31567397431246   -1.86733821955289    1.66950468206550
C         3.94760912319120   -0.54838632029071    1.94121894303377
C        -0.34577584390082   -2.78011912900895    0.85137767105661
C         0.92877167641755   -3.24262791752784    0.90297274533802
C         1.05309987678479    3.45945817447104    3.88393336146770
C         0.69202802678767    4.77616710363299    4.55291987060478
C         3.95915934727495    3.08978761383824    1.44330374290522
C         5.14129476417722    4.04435061801074    1.38753343535103
H        -1.11477656725092    2.29143805873284    2.01160991411122
H        -3.09036202257916    0.91426034850953    1.39913184086272
H        -2.79043192696346   -1.49363789766987    0.84826609969720
H        -1.15854445361342   -3.43791285778204    0.58189716021335
H         1.14781631763391   -4.27591666841482    0.67874771412537
H         3.62327701468891   -3.81852966318061    1.10115282073525
H         5.35520198673219   -2.14731236574245    1.73420638411495
H         4.68493823255459    0.19587431792777    2.21720846747016
H         0.25685773468092    4.58576311279403    5.52935365050658
H         1.60517586141244    5.35331420801422    4.68146038836419
H         0.00847804778940    5.34155066700344    3.92595504408011
H         5.79265284766843    3.88577954888373    2.24185225283297
H         5.68271858000209    3.90110360021020    0.45664903869679
H         4.76113865339880    5.06307441453456    1.41034493197129

