83
CSD_code = HENXIH | q = 0 | S = 0 | Stoichiometry = C42H19F16OsPS4 | MND = 5
Os        0.73191126965901    4.59047822319874    3.35331375080725
P         0.83249046189718    6.21937494408617    5.08315143809847
C         0.74952798465603    5.31740525636172    6.65258852147015
C         1.85230292091302    5.19670469496996    7.49152787898802
C         1.76955812104124    4.39859221130262    8.61886955567583
C         0.60153291675572    3.71098685739734    8.90360705896951
C        -0.49655322606882    3.82358698113529    8.06425346815378
C        -0.42536802090405    4.62168075601665    6.93942205025770
C         2.29559981559813    7.28826611564243    5.23245076056143
C         2.26399468619741    8.34703920314292    6.13782613265357
C         3.36843304449601    9.16556189920844    6.27728601698276
C         4.50458366632767    8.93837169013331    5.51524982865709
C         4.53741392029572    7.88724235407411    4.61477997825826
C         3.43652349433971    7.06094134228096    4.47235820367058
C        -0.52871427643403    7.42071611086622    5.13098771292957
C        -0.84907378315349    8.06463640237778    3.93794764275817
C        -1.85618116816097    9.00997744390176    3.91220674434454
C        -2.54644670611224    9.31802359428330    5.07433539572768
C        -2.22654921486326    8.68171182681270    6.26217428616742
C        -1.21954449771581    7.73283481741368    6.29659737000469
S         0.55015807034248    2.71233297715797    1.81303936714076
C        -0.03401899659139    1.37962656267493    2.74702436546502
C        -0.36017222106450    1.44661704475930    4.10507910924068
F        -0.18013171490601    2.63283824716464    4.76164826901757
C        -0.84764112666416    0.35600498730076    4.80234579926677
F        -1.15759950667039    0.48698762602966    6.09607862313366
C        -1.00981021016558   -0.86475846520850    4.17340291319503
C        -0.67405311462062   -0.96001556295204    2.83171436920705
F        -0.80520715676575   -2.13812840827213    2.21000407733844
C        -0.19948745003481    0.13239879526767    2.12679002513366
F         0.12786462819061    0.00174820403124    0.83214116451983
S        -1.55120202299823    4.87689168271234    3.41037604539833
C        -2.27233090018145    4.18328390541124    1.96468365613829
C        -2.89182968404030    2.93413979331134    1.95420655351793
F        -2.93200365108625    2.20334246700885    3.07827513170781
C        -3.45472455875259    2.43688519573359    0.78723878611712
F        -4.02006426153237    1.22469533429616    0.79154486448501
C        -3.44991863577257    3.18324645447429   -0.37829919165863
C        -2.87757984730707    4.44324712371292   -0.36288649361119
F        -2.89347221571399    5.18463795454641   -1.47311522828376
C        -2.29796644189939    4.94366812459966    0.79478685179044
F        -1.74375505646481    6.16019034349787    0.80775388130639
S         2.60012971230717    3.68790893878783    4.33402450620177
C         2.94537968831485    2.08636315756141    3.69363697957753
C         2.64189762516726    0.94253887603306    4.43286415186330
F         2.10849140578757    1.06576928080943    5.65426216802154
C         2.86680251040069   -0.32253392634525    3.90259376274761
F         2.52697998189283   -1.40356633596952    4.61507651959936
C         3.42353416538371   -0.48259369827874    2.64686676718895
C         3.76651382158445    0.64818363164538    1.92418170882122
F         4.32178369417870    0.51776895176012    0.71640086399994
C         3.53628071408707    1.91415726558590    2.44095999602835
F         3.86462831326965    2.99772742733525    1.72796213919407
S         1.43172771276940    6.10344898143758    1.84449619938305
C         2.19593899246147    5.28545331828222    0.47842854528431
C         1.47549468915523    4.63580749189402   -0.52197657065926
F         0.14298517182477    4.60543850270921   -0.46100049569651
C         2.13102084551701    4.03017703507467   -1.58708991945723
F         1.42231051678679    3.40278508250109   -2.52842431391021
C         3.50905405248988    4.08594011491071   -1.69583255970501
C         4.22788934250999    4.76242296296017   -0.72628138444756
F         5.55709603869827    4.84296306910067   -0.83012583047140
C         3.58384031484710    5.36009652907879    0.34927537803482
F         4.29500032169279    5.99763689526126    1.28303584427385
H         2.76839094545235    5.71963248300229    7.25623609775566
H         2.62554037153298    4.30371097063782    9.27021902173405
H         0.54845472969783    3.07713388468994    9.77574722566788
H        -1.40131514783304    3.27588326741613    8.27918702905833
H        -1.27147829096782    4.70753793332739    6.26951702470541
H         1.37493394042761    8.52367972119335    6.72712166255033
H         3.34314747847349    9.98501783602725    6.98021139837371
H         5.36304333502918    9.58401667338155    5.62427596756666
H         5.41758025306560    7.70807428780725    4.01686403731619
H         3.46553274659920    6.24061917664875    3.76983930299677
H        -0.31082191568117    7.80878427923127    3.03430155094129
H        -2.10740879440722    9.50181529039943    2.98490013736419
H        -3.33745332938220   10.05264146253264    5.05366560302633
H        -2.76516902669258    8.92211513923174    7.16691300752044
H        -0.97583051284052    7.23224943038510    7.22332215227092
H        -1.38256549602814   -1.71968417076019    4.70999824136334
H        -3.88470048402625    2.78900006851757   -1.28176080653806
H         3.58542081216851   -1.46597119238181    2.23775878716995
H         4.01292342007441    3.61103679461430   -2.52151863155441

