86
CSD_code = HENZEI | q = 0 | S = 0 | Stoichiometry = C43H33Cl2N3O2P2Pd | MND = 4
C        -1.54715961162963    1.21694206284662   10.16756697170166
C        -2.88443002725376    1.40415558659730    9.84206358413920
H        -3.30870067237082    0.90290548926185    8.98257642145287
C        -3.67065632343279    2.23377500116851   10.62296246162385
H        -4.71147979376825    2.37743236066156   10.37129025616960
C        -3.12638213464246    2.88239433601627   11.71834388349278
H        -3.74314145155077    3.53275789910700   12.32095311539852
C        -1.78882317654528    2.70535136297532   12.03782257012029
H        -1.36186305381822    3.21968055317843   12.88600765150961
C        -0.99957330005998    1.87794832032250   11.26415370261396
H         0.04993972205008    1.74276466789000   11.49302389805455
C        -1.53078348897850   -0.73672883652502    8.07805560784863
C        -1.76763134659314   -0.12767472741041    6.84627233063144
H        -1.29725239769027    0.83678090048648    6.63436883695606
C        -2.57172313825606   -0.74552072636271    5.90929048786693
H        -2.74605882373066   -0.27811904396565    4.95123138506162
C        -3.13938845767300   -1.97758303769786    6.19844905502416
H        -3.76120383934775   -2.46864404930846    5.46451436723943
C        -2.90059258777027   -2.58647012385637    7.41903674236201
H        -3.33639398138631   -3.55098316950077    7.63509287210594
C        -2.09529209493207   -1.97142668081926    8.36319102237527
H        -1.89353708675941   -2.45553487278831    9.30788874009011
C         0.19846886884020   -0.98615345020177   10.41381786162310
C        -0.59648761644858   -1.50340395640896   11.43415307967370
H        -1.62990675759208   -1.19843007631004   11.52198140180908
C        -0.04354183276010   -2.39368224677108   12.33738756742131
H        -0.65381345804995   -2.79841377675341   13.13104947140970
C         1.28345521590964   -2.77782860255212   12.24138119932651
H         1.70872246078508   -3.47404129227282   12.94533344040822
C         2.08256210798832   -2.25545839106473   11.22729810623049
C         1.53330053630840   -1.34823181778607   10.32356723185219
H         2.14032727894876   -0.91989578761242    9.52598138641212
C         4.22199340333572   -3.40983813515626   11.79505099620489
C         5.60763852124070   -3.46912949078789   11.21402079209821
C         6.57662181388409   -4.30049521733120   11.76820025067793
H         6.32206954392329   -4.90230108756806   12.62602123367643
C         7.83615580513510   -4.32349714205091   11.19009894550372
H         8.61162521718496   -4.95840629546302   11.59191529044725
C         8.08570241756463   -3.52101142282538   10.08778868324711
H         9.04367968485964   -3.49701998494150    9.59328169474726
C         7.05648961413278   -2.71760072735188    9.60644078463665
C         7.26370494421221   -1.82883583380858    8.41043642965579
C         5.84858602215497   -0.20942517396857    7.13566851130447
C         6.73305256363594    0.10539097199010    6.10742137126377
H         7.70918479300987   -0.35111175190632    6.09105633438466
C         6.34955216141213    1.00053694430372    5.12231644954101
H         7.04433865038822    1.24515931821628    4.33262998942648
C         5.09354443906202    1.58116550636373    5.13379506881294
H         4.80269161594285    2.28657128968155    4.36817463000723
C         4.20328744684253    1.25366718807973    6.15283776550479
C         4.58874929355699    0.38344202802823    7.15812499170948
H         3.88212595046216    0.15894005924372    7.95674082026357
C         1.63432926189237    1.66308414242292    4.76481632699092
C         2.08250091688666    0.90826650652311    3.69103378853997
H         3.08618757494761    0.50857148178672    3.69090733605983
C         1.22425010403094    0.65145228342791    2.63414770443966
H         1.56831514711567    0.06021696550094    1.79824193183677
C        -0.07210944986186    1.13715151770951    2.64940015363463
H        -0.73524933846225    0.92710473540797    1.82305405170630
C        -0.52672049493053    1.88202557720587    3.72812581483323
H        -1.54124381010856    2.25404342908860    3.74183852917498
C         0.32068493509947    2.13827402384422    4.78842942534188
H        -0.01418899325783    2.72342620696642    5.64796580435909
C         2.95382970999332    3.75485438592853    6.21515338299110
C         2.71860295781262    4.54841822163892    5.10034147259124
H         2.25138480727090    4.12558859854879    4.22112038563208
C         3.07989003310936    5.88439601791110    5.12383632790772
H         2.89592048325051    6.50391699049520    4.25796807652907
C         3.67013099183742    6.42787284720506    6.25237395187609
H         3.94409091485763    7.47250459269025    6.26638124529987
C         3.90382457971354    5.63645264554066    7.36645289274094
H         4.35685338529817    6.06391811402051    8.24865814767790
C         3.54719906776848    4.30261143708159    7.34860678079521
H         3.70592612708791    3.67331771167640    8.21634180424838
Cl        0.72164096640631    3.17986678106340    8.73283825483619
Cl        1.51812521580816   -0.91588479255626    6.82858332934712
N         3.42081237241441   -2.59333370636407   11.06445646259277
H         3.88392167580733   -2.18588358660976   10.25789584879437
N         5.84960578517358   -2.69758536232979   10.16088407166107
N         6.14680504826894   -1.10215147119020    8.15644515953739
H         5.39087003225739   -1.29189930076974    8.80799718145605
O         3.90690050197342   -4.02605142921771   12.79134835591590
O         8.30519407666385   -1.79602815025226    7.78992114235365
P        -0.42276864961653    0.19083108732595    9.17874788279303
P         2.55021641795870    1.98501511984430    6.29631919017121
Pd        1.14161400586745    1.12667146098441    7.83724004230629

