68
CSD_code = HENZIJ | q = 1 | S = 0 | Stoichiometry = C27H33NPRuS5(1+) | MND = 6
Ru       12.73581082657116    4.14964310754246   12.08169554900958
S        12.82302496452404    6.10819493283769   10.82217892745672
S        10.85857835959320    3.54914661309289   10.82984153585829
S        11.29086875031662    5.24905192507190   13.54767834081777
C        11.83593037540468    5.68741748435709    9.34645334692272
C        10.55607275225576    4.94809397576808    9.65996268065339
C         9.48061798559455    3.79019285317554   12.00973902485035
C         9.59469838980335    5.04531719060729   12.84563780333445
C        11.63350806628126    7.00897281298585   13.15687022593819
C        11.73195240529382    7.31677076839963   11.67984343261224
S        14.87960156149985    4.79383134180435   13.00565572476037
S        14.44529019741705    3.28287101577426   10.60196235858337
N        16.88029510766029    3.79332204968757   11.55236674611095
C        15.57406478064758    3.94052798093216   11.70021512279367
C        17.83281596128874    4.39348428094574   12.45342113890531
C        17.44711684406087    3.01919558944032   10.47564320036366
P        12.90056536388852    2.17436761449421   13.29052171626788
C        11.56729317400452    1.04009400644555   12.80487602734435
C        10.56053786205930    0.62053367083656   13.66842681249778
C         9.54002664176342   -0.18843142302792   13.19656602665918
C         9.51036279774170   -0.57476408789979   11.86669487675587
C        10.49127704278009   -0.13006423793351   10.99376679743311
C        11.50698232024255    0.68591181408111   11.45541279700409
C        14.43962339921189    1.20840696416882   13.09066551625459
C        14.57195826093655    0.10560336570889   12.25489844838100
C        15.79610941665336   -0.52992810048166   12.13634678295234
C        16.89445054593835   -0.07675508191444   12.84653182449175
C        16.76263319043668    1.00922790019767   13.69702554375263
C        15.54443562591531    1.64907133667647   13.82065509748530
C        12.86876048379352    2.22364314525132   15.10581917870206
C        12.85774447675906    1.02034912983902   15.81112174152697
C        12.89235329483549    1.03155107875055   17.19182641868489
C        12.95767481086379    2.23600135093104   17.87694782173379
C        13.00517168713157    3.43022495600897   17.17837267148055
C        12.96468979813073    3.42591308559706   15.79453624447352
H        12.51200290975036    5.05730358260615    8.76458970427726
H        11.64532670423727    6.61306103079216    8.80277759014248
H         9.79851221028925    5.59628295678360   10.09697741873871
H        10.15287522737715    4.49537846109992    8.75413106452818
H         9.52843292318895    2.89963325015836   12.63972157643555
H         8.55610655161725    3.77541108487738   11.43247048413156
H         9.35767368319858    5.94470579719499   12.27994416186065
H         8.92661698850977    4.98353428791820   13.70462925873438
H        12.59068298432474    7.18893984256809   13.65075316153963
H        10.85864450499202    7.60357233175777   13.64102325960912
H        10.76148259812746    7.30473814900436   11.18626810963360
H        12.18918212356344    8.29600605450977   11.53502225794313
H        18.54054759963440    4.99917236262040   11.88540171347602
H        18.38209007925589    3.61474595655312   12.98545296007576
H        17.31792473719311    5.02396715903106   13.17450050136049
H        18.21729705564241    2.35949148133170   10.87610177676692
H        17.89579971747597    3.67782506418086    9.72850815185747
H        16.67273596792502    2.41924730152782   10.00160899061817
H        10.57272516007415    0.92520919321463   14.70527916949023
H         8.76531526512508   -0.51817816252077   13.87246429373694
H         8.71775982542528   -1.21336135252946   11.50820729407844
H        10.46050728637196   -0.41511857325694    9.95299013426342
H        12.25705852697424    1.06914432719417   10.77247753533969
H        13.72433631148237   -0.27167285074738   11.70448914621917
H        15.88891101477993   -1.38678960442724   11.48619961082575
H        17.84636784859864   -0.57630847688875   12.74794000435375
H        17.60832139236929    1.35248209286212   14.27497204331687
H        15.44170754038984    2.49169644796302   14.49161465590079
H        12.83165557687088    0.08330500507176   15.27114461870546
H        12.87677908267759    0.09966314947316   17.73663943432485
H        12.98609321800541    2.24015796222742   18.95584079763291
H        13.08119966041978    4.36651572288781   17.71026229317985
H        13.03323020282454    4.35514855479349   15.24311932406592

