61
CSD_code = HEPFUG | q = 0 | S = 0 | Stoichiometry = C26H25F3O5PRe | MND = 6
C         7.62727988111829    2.92006487561590   13.87877675929728
C         5.89125386141624    1.30302305425213   12.44187584431827
C         4.99161156315020    3.79832143979276   13.28978765213135
C         4.83786031080312    4.52947232023340    8.34228303136796
C         5.50975657650665    4.61676117511485    9.72633669916774
C         6.05469761595804    5.85028356666093   10.02401853189421
H         5.90414826210052    6.65863719547858    9.32761555171370
C         6.81461510518904    6.10350934253067   11.19263887203763
C         7.29747275348735    7.51970595688942   11.38624569601381
H         7.91865910044939    7.57972284907648   12.27618514415984
H         6.44175768076540    8.18324505939349   11.49591743107564
H         7.86978875053958    7.83996057890472   10.51856585653132
C         9.72184907029097    1.59946499942231   11.28731101530991
C        11.03747249477539    1.73797466055238   10.85548682002652
H        11.30366096514765    2.53242124320524   10.17232685271358
C        12.00990273306358    0.86469133874281   11.30712785462926
H        13.02974758505438    0.97932771733957   10.97024370741846
C        11.67947483764914   -0.15344609064526   12.18684982608897
H        12.44266262285310   -0.83229327791704   12.53674967607288
C        10.37210501937879   -0.29392386064596   12.62231671573472
H        10.11175510178031   -1.08105351094909   13.31362553181248
C         9.39723057245063    0.58091286162824   12.17800396230146
H         8.37611227635411    0.48996098670430   12.52848994461279
C         9.27397755354168    4.21153148418360   10.27274357316065
C         9.11438072616661    4.89628702703817    9.07345532944965
H         8.48463156574127    4.50319970239050    8.28832623625696
C         9.76210383320880    6.10456645242165    8.87642425577869
H         9.63923706470847    6.62661814400764    7.93859793676354
C        10.55391432063273    6.64505891117695    9.87504005957294
H        11.05385785978270    7.58918981393235    9.71632545389384
C        10.69324881295750    5.97997286252863   11.08394810243161
H        11.29628909035455    6.40730074436205   11.87131443372758
C        10.05225960023476    4.77377378575291   11.28497588609598
H        10.14073706964535    4.25507786813479   12.23162672655425
C         7.91176610963299    1.92114052773578    9.07351186464042
H         7.31531228914077    2.67200631259665    8.53918937216458
C         7.02151974348143    0.70368896380521    9.32240125258423
H         7.58009161139033   -0.04871513394703    9.88736401904966
H         6.15036218110578    0.99969642358979    9.91402265745129
C         6.55452189258390    0.11273902110545    7.99504759682853
H         5.94306240165769   -0.77107178310175    8.18421978523395
H         5.93055901660471    0.84369889955042    7.47575529669119
C         7.74759890980845   -0.25344557131117    7.11744381891490
H         7.39854463935992   -0.64934199034167    6.16207474669106
H         8.33495700239741   -1.03261680908005    7.60941533448724
C         8.62932331992485    0.96910804165077    6.88169661523102
H         8.05879061227705    1.73112780348745    6.34519024327321
H         9.48902685593486    0.69871147027724    6.26498143700630
C         9.11382191088362    1.53657571533837    8.21418664811031
H         9.70424537356599    0.77693915026442    8.73278763355943
H         9.75837097451183    2.40187855272414    8.03813478484052
O         8.32641891119890    2.83466369478401   14.78432089405089
O         5.48109439671895    0.23531280615200   12.53863682025716
O         4.09056980710776    4.23970863877933   13.82893269975068
O         5.50761003823061    3.54327596077192   10.37520845832461
O         7.12849488806209    5.25978258321628   12.05050264390037
F         4.17577455753295    3.38775308312234    8.15515973111383
F         3.98248428267641    5.53325726434161    8.10537312460265
F         5.77171415419335    4.59160285650690    7.36348325614971
P         8.38167622393968    2.68539642873614   10.69829809306189
Re        6.53327565884257    3.13130581193613   12.28750420194641

