67
CSD_code = HEPFIU | q = 0 | S = 0 | Stoichiometry = C26H28F6O5PRe | MND = 6
C        -4.55286099779052    7.56724265444431   11.93202813283796
C        -5.83785125468877    6.40295670084183   14.05323586377033
C        -3.26426007899167    5.65098765376451   13.57969730461650
C        -2.54391964896794    7.37887274727341   18.06029985414342
C        -2.55460349170102    7.50873848289893   16.52301916360728
C        -1.33256039427663    7.88779659117388   15.96334087534501
H        -0.46793810150488    7.97998443645858   16.59831871188904
C        -1.21075910502833    8.18118737150465   14.60278743100698
C         0.20280593774204    8.61799409498479   14.16593459009057
C        -4.15950696223438   10.61902984974166   15.75966731284861
H        -4.01707176080016    9.87149831247659   16.55210934083222
C        -2.79235505652011   11.15414585003937   15.32523150379839
H        -2.19747954265024   10.37478455377721   14.84948986162673
H        -2.93636657539048   11.94599768341231   14.58427419737550
C        -2.03725405033835   11.71960597226343   16.52323036180223
H        -1.88280074654783   10.93445850229068   17.26727505458009
H        -1.05579448390237   12.07368120235294   16.20334136772377
C        -2.83744947659576   12.85941782334485   17.14384576832486
H        -2.92978963543532   13.67329935179786   16.42053220667709
H        -2.31731963174283   13.24709634502952   18.02100937365616
C        -4.22623603059943   12.36986253957455   17.54067370013385
H        -4.80849191200422   13.19556654544584   17.95498671161679
H        -4.12986073356375   11.60660859197904   18.31658847814067
C        -4.97014730089157   11.77763518169703   16.34235688870971
H        -5.95373130507472   11.44538296981099   16.67691127101306
H        -5.10363911636186   12.55040267136392   15.58134467097639
C        -4.74712144645108   10.88608737161059   12.96475953870185
C        -3.70636657292825   10.65629296165136   12.06788556165415
H        -3.07992146258331    9.78105202645960   12.18157879740834
C        -3.46130483839599   11.54030492039470   11.03329549410183
H        -2.65051297645118   11.35025901469789   10.34658890600341
C        -4.25594396286057   12.66400339711066   10.88102646122622
H        -4.06878294759936   13.35549599495853   10.07337524822828
C        -5.29440292364701   12.89914521576129   11.76710846301016
H        -5.91733253376546   13.77388069776141   11.64998164650484
C        -5.54003756428537   12.01891985560858   12.80547344605598
H        -6.35658843620870   12.21862169775704   13.48315049725855
C        -6.77665238851552    9.74803093335171   14.70145214397307
H        -7.07839172667309   10.77787332432014   14.92086929741622
C        -7.54378420291186    9.26215452291459   13.47061032490095
H        -7.36473748394454    9.93913167412840   12.63149460837863
H        -7.17361556465968    8.27356429434692   13.17887134011760
C        -9.03956091202925    9.18010057431532   13.76228327226581
H        -9.56114869173522    8.80476891408883   12.88076650899766
H        -9.42518073331423   10.17954976091282   13.97943169211726
C        -9.30160619963581    8.26597885378814   14.95441292744733
H       -10.37298521450751    8.21632949662746   15.15600174653162
H        -8.95436067046973    7.25821809429792   14.72161881237356
C        -8.56721013926855    8.78492322289739   16.18578200794837
H        -8.74927349418604    8.12538831843572   17.03572587942995
H        -8.94855914679717    9.77660996387519   16.44415915970900
C        -7.06717022175112    8.87014657720091   15.92038187827999
H        -6.67194010738760    7.86537169232291   15.74446156874876
H        -6.56220682967509    9.26888062273973   16.80391075691994
O        -4.77723423954422    7.71060628421752   10.81816409435152
O        -6.75481360084207    5.72576621294458   14.18012610345827
O        -2.68019181543146    4.68282412505835   13.46000628218454
O        -3.64977776075078    7.30306683557261   15.97184860550941
O        -2.08068692280446    8.18497631533568   13.71423027970020
F        -1.54055227848064    6.61436843899466   18.50575095032323
F        -3.68059307356683    6.87225875378953   18.53559156046691
F        -2.38907304866909    8.59102497958744   18.63206972650756
F         1.11191868211420    7.65945665523304   14.39028680361922
F         0.61104482431037    9.70339382315956   14.84829302955499
F         0.25668606724965    8.92826174367045   12.87104131133816
P        -4.95953005765682    9.70278676135490   14.33654254149381
Re       -4.16715592739457    7.37269039697357   13.82916072865954

