61
CSD_code = HEPFOA | q = 0 | S = 0 | Stoichiometry = C26H22F6O5PRe | MND = 6
C         6.75355892001999    3.00659697133849    6.77414936068991
C         4.97798962551864    1.40290558245412    5.36596438685532
C         4.12903524721612    3.94464659988699    6.16860403323209
C         3.91362180853032    4.52714383424863    1.21739439511416
C         4.60907131119854    4.64799759319168    2.58898741000268
C         5.17797866247888    5.89574573627516    2.84662296080569
H         5.02561458979035    6.69779226875586    2.14493762420061
C         5.95581880185567    6.12242272172801    3.98611126650597
C         6.46859780926225    7.56881065513486    4.13997921528205
C         8.46405338243738    4.20939941528266    3.24024343573494
C         8.34809285598156    4.90994326932496    2.04451041430716
H         7.72588507669730    4.53950945116833    1.24172411804496
C         9.03019862058489    6.10340346831539    1.87588205910251
H         8.93773407829412    6.64264133542776    0.94527514465152
C         9.81006427312521    6.61353957537188    2.89972428994217
H        10.32927618418817    7.54988799667103    2.76470954353318
C         9.90523618581880    5.93373784664219    4.10456895577083
H        10.49232944169122    6.34159873709414    4.91303005553689
C         9.23094100161497    4.74130464515484    4.27772325819033
H         9.28296935861208    4.21165115695414    5.22108932615984
C         7.05000972194550    1.96424246321893    1.99610689198557
H         6.48211616639333    2.73392631527755    1.45647206639542
C         6.12614891088561    0.76828867084001    2.22873262018977
H         6.66207040140560   -0.00171115918974    2.79150441509738
H         5.25747777406571    1.07841455214538    2.81748423412052
C         5.65722001537627    0.19908078862810    0.89244123088720
H         5.02035638257567   -0.66907361545115    1.06915675066568
H         5.05874240472231    0.94944641291186    0.37078681260772
C         6.84968780231528   -0.19331630653987    0.02531443443269
H         6.50026786077592   -0.57237646970766   -0.93651417312429
H         7.40957482759648   -0.99193703548365    0.51782107979053
C         7.76753263499456    1.00588420752031   -0.19214206442325
H         7.22503221647864    1.78661400905827   -0.73079185579532
H         8.62660537395791    0.71535165666001   -0.80006526569282
C         8.25199392414524    1.55194605974536    1.14933876169132
H         8.92159581482005    2.40042872166427    0.98650315444321
H         8.81469597217796    0.77363168058911    1.67083646983147
O         7.45404193665773    2.92297722179061    7.67529682260045
O         4.54509288229554    0.34614434975216    5.47038022605167
O         3.24351387895040    4.42072918739129    6.69798163749334
O         4.61987760947375    3.61136183778426    3.27595943872882
O         6.28954182474485    5.32908575094375    4.87991608490162
F         3.21903482563909    3.39705623820533    1.09466818522638
F         3.08622737345749    5.54405284289652    0.95746003845309
F         4.83871787385611    4.51973279132393    0.23271177138603
F         5.47968428138107    8.39033347818413    4.52733466069916
F         6.94489298668980    8.06620576613492    2.98686052419150
F         7.44383570813647    7.66983021593154    5.04248661837433
P         7.52169319377415    2.70632691837494    3.62990064164866
Re        5.65868447658710    3.21416215091212    5.17987965730873
C         8.80737837840661    1.57335099423599    4.24641317511337
C        10.13301286240994    1.66708178956545    3.83307832868062
H        10.43549331461010    2.45246473482049    3.15472258903493
C         8.43448921904277    0.56821273596919    5.13350701932672
H         7.40600939892313    0.51303450597750    5.46956783978194
C         9.37264140469824   -0.33911180661974    5.59160641933362
H         9.07584790998019   -1.11610736451093    6.27953583649771
C        11.06819687511068    0.76118453730859    4.29888803246970
H        12.09604675879106    0.84058325468779    3.97710274128883
C        10.69000462460409   -0.24432914390252    5.17396255943042
H        11.42404496215647   -0.94898279934704    5.53466233533949

