74
CSD_code = HEPFEQ | q = 0 | S = 0 | Stoichiometry = C31H36O5PRe | MND = 6
C         1.34890225214045    5.36318580240393    5.72889945489919
C         2.65274797324582    2.88432759530816    5.90177877123319
C        -0.14188072650302    3.13601686737073    6.33888962624739
C         0.35051629021048    0.94954082452176   10.25305813555874
H         0.94326778957071    0.19589400208072    9.73936434513839
H        -0.69993808913472    0.66852645908615   10.20684450874836
H         0.64403545282879    0.99621599690106   11.30021331302854
C         0.54014143948553    2.29676803622532    9.58497942294490
C        -0.07234418745139    3.39927128538350   10.19631111420758
H        -0.59410428038976    3.23236395247366   11.12537625595227
C        -0.03386204738865    4.70292407056262    9.68752120527636
C        -0.49914447292289    5.82214850942683   10.55263564501585
C         4.92421988179689    5.43657496491272    7.29986217790727
H         5.42866387591927    4.49530352391637    7.04646743466693
C         4.48651214131967    6.10470452415665    5.99701072394045
H         3.80238245503282    5.44284022574539    5.45801296682939
H         3.95687756749278    7.03353122473213    6.22451244802994
C         5.69392100593921    6.41137451673556    5.11456646587682
H         6.18166184151406    5.47503742341829    4.83448614698161
H         5.36008404509487    6.90103805651644    4.19850498366515
C         6.68846903022536    7.30090622298355    5.85237826634152
H         7.56011274753298    7.49030970110833    5.22322800677038
H         6.22030354117506    8.26210407373856    6.07615700162454
C         7.11996418650346    6.63431075274958    7.15356396647685
H         7.81719315823926    7.27966081831301    7.69223401255073
H         7.63587544492654    5.69783440965814    6.92837178039137
C         5.90592507455067    6.34783118247760    8.03506977595825
H         5.41318566087696    7.29143346597740    8.28130350993577
H         6.24526031581385    5.89223215083894    8.96739398402797
C         3.01843735105278    6.52464314470047    9.14315454861025
C         3.60630199449723    6.94987536759735   10.33153137222257
H         4.38628787526434    6.36844865047240   10.80007602160930
C         3.20623799754501    8.13512886439401   10.92217478934782
H         3.66082198728500    8.44776839316747   11.85123081027817
C         2.22959653552098    8.91807021680736   10.33042286908858
H         1.91044972180468    9.83446094492632   10.80402356859999
C         1.67156351265522    8.52465846747971    9.12645786399590
H         0.92312870931183    9.13925377779743    8.64917553831497
C         2.06309079794779    7.33686599555999    8.53721726083065
H         1.61235249702655    7.02366802228438    7.60538664189980
C         4.22630117064546    3.88817314503950    9.62286444566094
H         5.17265610686533    4.36644806160028    9.90987051803059
C         3.36443667903348    3.70693797470223   10.87230572103553
H         2.43662552431990    3.20446576692779   10.60413218567468
H         3.09647577230103    4.67005406330196   11.31356775675898
C         4.10338440618061    2.84856920319923   11.89572592134557
H         5.03001898802805    3.34719703590144   12.19377125860221
H         3.48701224382270    2.73159339031791   12.79014450149953
C         4.42839500628670    1.48095604793084   11.30255791009833
H         4.96929343819412    0.87524512247200   12.03278827256527
H         3.49794830969644    0.96310503594066   11.06008710167544
C         5.26023453981949    1.63718876609754   10.03344029433024
H         5.45858493145744    0.65720769197435    9.59509437655098
H         6.22291943388398    2.09193897115908   10.28400350185749
C         4.53217058107563    2.51431709287755    9.01871762889158
H         3.59457713942370    2.03350839455517    8.72688202900927
H         5.14471995513648    2.61644184360363    8.11909794331338
C        -1.14512798695304    6.90756478178994    9.96933288674702
H        -1.35234156630347    6.88358083089064    8.90944229550582
C        -1.51934036657804    7.99264544566781   10.73824868879444
H        -2.03131582464981    8.82669679271294   10.28076446410118
C        -1.23180863399700    8.01381748103054   12.09290773213651
H        -1.51702071457720    8.86481403403611   12.69410463824118
C        -0.57319383988788    6.94420031194072   12.67624549236667
H        -0.33875162515822    6.96419144605154   13.73086425656013
C        -0.20994707266479    5.85036064534387   11.91242973904988
H         0.31945534528631    5.02563801483553   12.36782225283233
O         1.16394404727627    6.19708570227111    4.95819280400639
O         3.37540212790743    2.24268788572012    5.27973345269069
O        -1.11062320384656    2.64932894861032    5.98111000638437
O         1.28720771976650    2.32089172677988    8.57378856438957
O         0.36871533282318    5.04779515696948    8.54370254888201
P         3.42814234912502    4.94860503199834    8.31567841644680
Re        1.48883133876828    3.94069567080805    7.04353365889385

