39
CSD_code = HEPHIT | q = 1 | S = 0 | Stoichiometry = C18H10CoN6O4(1+) | MND = 6
Co        7.54434014975679    4.73210132725090   -0.00038531235142
O         8.10836203498999    3.14981698242169    2.20071889907808
O         5.30819361653222    4.43136870535839   -1.45191240179891
N         7.52011629393707    3.15478012459938    1.14828100756366
N         6.05616184036341    3.81089512797097   -0.73450042593752
N         6.31259325091193    5.68570983301806    1.25029212094381
C         7.10628650234712    2.05113478428375    0.42062004940916
C         5.81871260005609    2.51459840665605   -0.31729838340849
C         7.93504969362609    1.09294351963071    0.15090393144189
C         4.69401126458915    1.85888787789564   -0.23072211035847
C         6.59641640759001    5.74066060025308    2.55712182331062
C         5.83428107621206    6.46990150089741    3.45101706205790
C         4.73552896960666    7.17546427887315    2.98558412594606
C         4.43691186860957    7.10989714579144    1.63392427789383
C         5.24769551082048    6.36115469004814    0.80111805458323
H         7.45094475480440    5.18167875738318    2.91837932315245
H         6.11122922452969    6.48123319685296    4.49270938948347
H         4.12784457517706    7.75979956293321    3.65845267031164
H         3.59255069886345    7.63278136237173    1.21592450375469
H         5.00917309499002    6.30114156562142   -0.25407395370755
N         7.56923748238021    6.30840199452185   -1.15123051252987
N         9.03271886801115    5.65610584864897    0.73475122826635
N         8.77766861876968    3.77918281126755   -1.24964460911552
O         6.98181134577135    6.31139854635010   -2.20416620084386
C         7.98313618274846    7.41294837873227   -0.42535974278685
O         9.77882870050223    5.03828345348032    1.45651788204747
C         9.27148303343040    6.95030374029054    0.31231519112952
C         8.49329870540263    3.71991686135746   -2.55615427700055
C         9.84422403715482    3.10722262008547   -0.79910691066541
C         7.15434965415958    8.37100103165973   -0.15574776873382
C        10.39777462155399    7.60197391039712    0.21791451713166
C         9.25626809766124    2.98941637463832   -3.44829796982934
H         7.63771606829204    4.27652199580006   -2.91856056229061
C        10.65601690375465    2.35766659303965   -1.63014796658097
H        10.08296657360807    3.17045885665615    0.25586434464631
C        10.35665604396626    2.28737497066242   -2.98141636046841
H         8.97863165730287    2.97428807870041   -4.48975458935783
H        11.50165342175468    1.83768577597476   -1.21110939330612
H        10.96485655546260    1.70189880762632   -3.65282095108019

