35
CSD_code = HEPPOH | q = 0 | S = 0 | Stoichiometry = C17H11CrNO5 | MND = 9
Cr        6.68957820436185    2.29860704748271    3.00481495997364
O         5.85489603200968    0.27688630010652    5.02515234087130
O         4.25314667324441    3.66247767409735    4.03893757834965
O         7.71946966824212    3.51297083923607    5.51801407417598
O        14.95047514801171    3.92996929295153   -0.25175579379855
O        13.41819791409976    4.13613203000642   -1.74799209968696
N        13.85433723991838    3.67679723469247   -0.71022049742836
C         6.17552364070859    1.02936789499380    4.21258313038279
C         5.18091049182892    3.14482920760406    3.59334487921007
C         7.35753087451253    3.05908721202480    4.52213884276104
C         8.61583933909081    2.53065799813780    1.88169755907377
C         7.74195866841285    3.49888116328165    1.36141228937004
C         6.49150582012111    3.11480065664678    0.87501743850214
C         6.12524247678921    1.75520983693626    0.86110522591025
C         6.99946568369252    0.79720674802600    1.37291105287349
C         8.28950347225607    1.15913698163459    1.84172292846372
C         9.20188870959338    0.12595518149103    2.30449862651212
C        10.54099967657774    0.12348467482377    2.20534017066481
C        11.37018504995068    1.05301309128171    1.45519677805600
C        10.96223218665539    1.56384095280740    0.21580112320836
C        11.77323604637150    2.41706713403461   -0.49624365241908
C        13.01397638617974    2.77626582299667    0.02432112964777
C        13.45096084060317    2.26134768321547    1.24118253678998
C        12.63703690752352    1.39804018101215    1.94053451683097
H         9.59782499036310    2.83177554829102    2.22661521737987
H         8.05368665288066    4.53460852520399    1.31147845111015
H         5.83498983307649    3.85067411277224    0.42601843831187
H         5.18885482999391    1.45197278754352    0.40911890302315
H         6.74841932459430   -0.25573905672259    1.29742512512241
H         8.72613290478993   -0.71069599611802    2.80282877626383
H        11.08654116010535   -0.65969359060013    2.71557559938341
H        10.01009690137818    1.26348779460813   -0.19533179634331
H        11.47288418013600    2.81149653910139   -1.45493954203209
H        14.42263695532555    2.54698503447143    1.61384529409675
H        12.96763511659977    0.99339546192785    2.88525039539089

