86
CSD_code = HEPPEY | q = 0 | S = 0 | Stoichiometry = C45H36BrNP2Pd | MND = 4
C        -1.03529664212868   13.48053821461209   14.08527505540444
H        -1.94066439796524   13.47153892527613   14.68208738183257
C         1.23452883179423   13.49491406325678   14.05138529237915
H         2.13234154337293   13.49705631190396   14.65613589586211
C         1.29222880173685   13.50348568485918   12.68529805324875
H         2.23951139374590   13.51301515443294   12.16616157013978
C         0.04225240775172   13.51182704369737   10.53963551469384
H         0.98129301676857   13.52149227093833    9.98995009490005
C        -1.15967278194043   13.51005670441330    9.88666714515953
C        -2.36335988146405   13.49479521065998   10.61617022081405
H        -3.31474959361481   13.49380475044727   10.08002043777729
C        -2.35221794650302   13.48308955236744   11.98287087303701
H        -3.27367046293561   13.47269778238507   12.54978136271227
C        -1.12599434371723   13.48719985311351   12.67832161662582
C         0.09078846810841   13.50032717049447   11.94700090577740
C        -2.89199319925344   16.62987485555882    7.85474514545118
C        -3.05556093399873   17.99412093790508    8.07866871884431
H        -2.21401949299093   18.59049794292011    8.40570031015833
C        -4.29903434671003   18.57070541595807    7.90060104292521
H        -4.42908551447903   19.62961906013792    8.06989895901015
C        -5.37956491393239   17.79340662012454    7.51089495280784
H        -6.34765722750482   18.25186194399842    7.37338725594841
C        -5.22388114450715   16.43219215646424    7.30727700852108
H        -6.06840116608897   15.82805425000242    7.01113459309700
C        -3.98174646036973   15.85043407889810    7.48231298042149
H        -3.84171325387248   14.78163947253774    7.32343518849847
C        -0.15619665748756   16.42041805669678    6.82312757535859
C        -0.33525162155585   17.56925109621376    6.06733408290461
H        -1.21487022467199   18.18067407780829    6.20644750184483
C         0.60916728981877   17.91053501490408    5.11368728640749
H         0.46770592961063   18.79970726069288    4.51720008366184
C         1.72303451107299   17.11342853202527    4.91271545769981
H         2.44981243116287   17.38336539254698    4.16100385638655
C         1.89940445245282   15.95834851276243    5.65945387483232
H         2.76029239001208   15.32863577568750    5.48848974439690
C         0.95851184364889   15.61067848408116    6.60709729041545
H         1.06146739082502   14.69052740605697    7.19110517074792
C        -0.68242108442974   16.50936808392339    9.63360748792120
C         0.67162022371543   16.75878962805837    9.82816652404982
H         1.35946453457429   16.67686590600237    8.99688789923198
C         1.13894429558729   17.11070918667300   11.08172454369141
H         2.19227948550217   17.30223890430979   11.22665929587829
C         0.26437310530437   17.20528389196014   12.15075775180455
H         0.63456752676986   17.46059132031901   13.13238051457484
C        -1.08723024330948   16.96660021109971   11.96076599412477
H        -1.77151503222771   17.03960555581738   12.79320092786994
C        -1.55931876642463   16.61827973494099   10.71064716478582
H        -2.61307333018008   16.41956798009666   10.56223884704049
C        -2.86622253410788   10.50815440582705    7.83196162998926
C        -3.95030872280667   11.32533416581397    7.52841809924511
H        -3.78716957493537   12.39461026843436    7.38351979945394
C        -5.21605538559155   10.78267778031881    7.40397409639641
H        -6.05660066279082   11.41610955357091    7.16145680655443
C        -5.40151119809696    9.42284123974784    7.59069850011009
H        -6.38826120477137    8.99488122826692    7.49232097763143
C        -4.32664913570524    8.60806763675354    7.91347755782338
H        -4.47931134861495    7.55006819356166    8.07005480992816
C        -3.05927953801143    9.14523268886368    8.03938330565580
H        -2.22117704030797    8.51854581223820    8.31475142698595
C        -0.19270133914536   10.67700293800564    6.64649227159226
C         0.91251400451236   11.47588967115892    6.35792030525545
H         1.05976402462504   12.39599906302149    6.92832394679162
C         1.78661049017724   11.11961340181864    5.35123673002352
H         2.63954404772248   11.74227820962132    5.12451771566392
C         1.55225130237803    9.96582265282769    4.61905932612617
H         2.22680715307198    9.68823878514575    3.82278433156022
C         0.44656012664348    9.17887414949510    4.89278062949042
H         0.25884319872427    8.29049403577869    4.30778980353905
C        -0.43084100395151    9.52924019740580    5.90504262628576
H        -1.30490949012092    8.92542832176246    6.10099139747878
C        -0.55097607638011   10.53801835858103    9.48123757948196
C         0.81193195415955   10.28707524272337    9.59555099890520
H         1.45379576719323   10.39901280873928    8.73155642660813
C         1.34583024281726    9.89704750103866   10.81069498399135
H         2.40573103537096    9.70425045833884   10.89325860987515
C         0.52943253413381    9.76715224602586   11.92123452505848
H         0.95148130036774    9.48162867407492   12.87322545795222
C        -0.83069505908985   10.00826740923933   11.81119026512322
H        -1.46972171561071    9.90734774504595   12.67606437811354
C        -1.36937843161916   10.39310647498780   10.59940829412701
H        -2.42982581534927   10.59302078692546   10.51430545400571
N         0.08749911742128   13.48421760893140   14.74916220596998
P        -1.30398146664500   15.79225563966174    8.08040419898177
P        -1.24711361604237   11.30301399271917    7.98423865014234
Br       -1.73679984543639   13.60627138569878    5.52158291434406
Pd       -1.35463530327477   13.54799382786580    7.93651251205236

