38
CSD_code = HEPPUN | q = 0 | S = 0 | Stoichiometry = C18H10CrF3NO5 | MND = 9
Cr       -9.25219719178151   -5.81298110615964  -14.19642437263066
F        -8.87602707882227   -3.28703956122433  -16.49975734784285
F        -8.69007302747534   -2.03689605425207  -14.75082845027527
F        -6.96318303940603   -2.44622780430590  -15.97203398696815
O       -11.68351846375517   -4.17628621466838  -14.72160954529176
O       -10.63791992119440   -7.43522040762793  -16.27208952083820
O       -11.13144624366380   -7.33468725564355  -12.45540681217939
O        -4.39913647916894   -4.09036835708541   -6.76098566914677
O        -3.59680708450950   -3.11712361047713   -8.50267674728330
N        -4.23245180031509   -3.99674890740124   -7.95902068287223
C       -10.72675940484833   -4.77152764081673  -14.50571384031456
C       -10.06879023481774   -6.82001927790458  -15.48457141290320
C       -10.38808481803821   -6.74408240859946  -13.10485196170866
C        -7.75338218145596   -5.40340370690450  -12.54147207336947
C        -7.96121118136912   -4.22430072816616  -13.24181724340741
C        -7.80013278601048   -4.22396110450107  -14.64875662779014
C        -7.36665152638922   -5.37091772910241  -15.32631690967124
C        -7.15966785099075   -6.55704492957897  -14.60413681130465
C        -7.33380133363129   -6.59132079529367  -13.20804856761348
C        -7.09468751615277   -7.83185626377694  -12.48481510587125
C        -6.59118845738046   -7.96585560973414  -11.24890802573208
C        -6.00124297419052   -6.92445292293904  -10.41985941522239
C        -5.21135403440785   -5.90974730462718  -10.97434964084418
C        -4.62969133322955   -4.95305430696165  -10.17290074296533
C        -4.83333727283004   -4.99915636807555   -8.79715253696539
C        -5.59752787394043   -6.00923146640391   -8.22221095503773
C        -6.16566446009825   -6.96913809593712   -9.03129949539562
C        -8.07765464414446   -2.99598043108950  -15.45267838119088
H        -7.85840229896183   -5.41366807036469  -11.46453876619830
H        -8.21632037751352   -3.30666483466496  -12.72684663743533
H        -7.15611033458932   -5.32812165971623  -16.38841391452817
H        -6.77389328221904   -7.43186366081185  -15.11470432120747
H        -7.38675136863710   -8.72867334935953  -13.01772020176697
H        -6.58741474820567   -8.95312293819097  -10.80592201323140
H        -5.03446019636529   -5.89464641849005  -12.03930804329623
H        -4.01247251706514   -4.17028231179458  -10.58665569838622
H        -5.72779687635178   -6.02529956804384   -7.15104725217676
H        -6.75948778607430   -7.75802681930821   -8.59505026913815

