115
CSD_code = HEPPRU | q = 0 | S = 0 | Stoichiometry = C40H62O8P4Ru | MND = 6
C         3.76211109572142   -0.30287267116298    5.87546846439617
C         0.90963180542510   -1.45377929784052    6.17036323482126
C         0.86757781035025   -2.80256786127747    5.84717438020182
C         0.60796168894013   -3.74210217275209    6.83089026376066
C         0.39585622365977   -3.34449384827624    8.14031145054106
C         0.44121533164296   -1.99835107250788    8.46880364345230
C         0.69299571850241   -1.06027269309072    7.48494959243279
C         4.11919462010150   -0.15132859153228    7.34567755917188
C         2.98628498302254    2.77481304398916    3.77174455823853
C         4.26142662780430    2.67273298874926    4.30691810952999
C         5.35330981061874    2.49664180301246    3.47325224079776
C         5.18067446577178    2.42625878008299    2.10096847557298
C         3.90963551329106    2.53830851544070    1.55997926122277
C         2.82023010000387    2.71312495580450    2.39423094981071
C         2.25213349838064   -0.65224501569135    2.57115141826614
C         2.61296256491306   -1.84723878010922    1.70568679986742
C         1.62486507824842    3.32243535645243    7.40664766163060
C         0.72919813099125    4.52679388252079    7.64566977878249
C         1.92777756228238    5.60836564605458    4.28188643236704
C         2.28358591440371    6.12824147968493    2.89607092949735
H         0.03196604652780    1.52546344713858    3.08857108744484
H         1.73737538271865   -2.47375574315800    1.55581065800903
H         3.38793175643054   -2.43803143412038    2.18844932133769
H         2.44318841303416    3.28347662483496    8.13562072867047
H         1.03269085536291    2.40360872937788    7.47782258569622
H         0.26499710334942    4.46026051984437    8.62717903818227
H        -0.04117669846491    4.53800998960159    6.87674359381022
H         1.30659768119819    5.44776614432857    7.58560917557656
H         2.83763527082241    5.32703059521448    4.82383062531810
H         1.40735574173173    6.38775129944197    4.85086266997553
H         2.90737811752873    7.01435125748202    2.98636783161300
H         4.59292330940305    0.03812938160813    5.24622644200108
H         1.37945082475769    6.38464792276126    2.34979595903839
H         2.82459478604602    5.36832456286784    2.33788664883990
H         1.04376612462200   -3.11215496988630    4.82870485587038
H         0.57307468606493   -4.79177395246946    6.57437261703175
H         0.19469700863503   -4.08159036528465    8.90485403875629
H         0.27718449976454   -1.68438936461908    9.49014901409556
H         0.72523557841187   -0.00492518120030    7.72135216532210
H         4.39379615248650    2.72829342426472    5.37620824845969
H         6.34541796856652    2.41495561556646    3.89600976939811
H         6.03493016780680    2.28619455017002    1.45394435154373
H         3.54833920068803   -1.35187346757230    5.63884732123314
H         3.77143925648821    2.48869828283553    0.48892466560954
H         1.82001710493939    2.79702384138101    1.99065343235245
H         5.04147844794831   -0.68554752707095    7.56022678815566
H         3.32242470684381   -0.55116614666071    7.96791867081032
H         4.25142719556012    0.90111683095286    7.58288241398652
H         3.13048094783349   -0.01497783975447    2.73168546422376
H         1.47141242313727   -0.04690649396964    2.09788512804838
H         2.97704722228594   -1.50445264985137    0.74117020048778
O         2.63429486878733    0.50894498139177    5.55743659153234
O         1.78017893307017   -1.13661391085802    3.82025336368453
O         2.24628935127479    3.37690763633836    6.13602377085857
O         1.04356534528762    4.49767981476244    4.19695016216042
P         1.25549267014723   -0.11462586725986    4.96603289695676
P         1.45918634444597    3.02838873481732    4.76490052915467
Ru       -0.22262370050948    1.51812252554302    4.62074632615598
H        -0.47700759279959    1.52098048504996    6.15282859438961
P        -1.70145054305999   -0.11402171633585    4.27345715265397
P        -1.90463457053456    3.02877408966227    4.47742811631632
C        -1.35593032337797   -1.45338557734196    3.06915558757028
O        -3.08056090748278    0.50917722509917    3.68240930499328
O        -2.22580538282810   -1.13593751233508    5.41944450823654
C        -3.42809493957612    2.77442976378593    5.47598406747296
O        -2.69605919418888    3.37537542420893    3.10835617788772
O        -1.48913983998353    4.49934396829357    5.04250663737055
C        -1.31536671140271   -2.80227777464752    3.39219830300536
C        -1.13865359589863   -1.06004600164148    1.75462748132572
C        -4.20788228693045   -0.30319166234356    3.36397148613555
C        -2.69865428963565   -0.65119342263713    6.66804057217201
C        -4.70470151116322    2.66799577551575    4.94522553144748
C        -3.25739474783088    2.71616307166177    6.85313139580895
C        -2.07845101601963    3.31781521428954    1.83612338376890
C        -2.37467098385746    5.60899935190267    4.95750955299093
C        -1.05668235417702   -3.74201722510205    2.40842913750722
H        -1.49200467196615   -3.11177252400688    4.41061743718368
C        -0.88780173736334   -1.99831924262737    0.77070546843726
H        -1.16959853154681   -0.00465354910837    1.51827560087118
C        -4.56580641919618   -0.14989943405965    1.89414809010188
H        -5.03868294243540    0.03610211234483    3.99413423695050
H        -3.99307934823294   -1.35234325686369    3.59899603133255
C        -3.06042877257442   -1.84588733900396    7.53350237786037
H        -3.57674202197911   -0.01378276659337    6.50666641726378
H        -1.91822628254204   -0.04588246952843    7.14183112131712
C        -5.79334866660912    2.49059668418584    5.78287910633494
H        -4.84073319958774    2.72126220899554    3.87627919816947
C        -4.34354160101931    2.54018625714190    7.69133427329280
H        -2.25612159649860    2.80369162514422    7.25327682283544
C        -1.17747968740187    4.51765097930836    1.59461381535185
H        -2.89900588388252    3.28290453950522    1.10951456364203
H        -1.49116466670146    2.39609435106359    1.76343439210645
C        -2.72881087544024    6.13101393108505    6.34297346313367
H        -3.28517036795498    5.32585867360050    4.41760432829405
H        -1.85609646563720    6.38803680772690    4.38634340889794
C        -0.84404275990630   -3.34454286452875    1.09905235346665
H        -1.02299853848642   -4.79175156369066    2.66485399306315
H        -0.72327451166550   -1.68444476999374   -0.25058570745970
H        -5.48745752016678   -0.68502102279547    1.67913121548288
H        -3.76873210708641   -0.54774698666579    1.27101923437290
H        -4.69949704671199    0.90272373675438    1.65854396905325
H        -2.18504286145711   -2.47243954053836    7.68442020929917
H        -3.83497817808718   -2.43674691501055    7.05014632867110
H        -3.42543460063966   -1.50274028225241    8.49754024334029
C        -5.61602669592627    2.42344321472104    7.15472507799334
H        -6.78663570267213    2.40535418355602    5.36360487377726
H        -4.20172631684303    2.49330349354041    8.76203863217904
H        -0.71590679734843    4.44838896699737    0.61206473900551
H        -0.40528529664308    4.52529096341425    2.36175370150607
H        -1.75014165930464    5.44136340669188    1.65568570997257
H        -3.35457337956196    7.01566950666429    6.25197850700246
H        -1.82423342815416    6.39050086128251    6.88705690499244
H        -3.26725570129547    5.37120399211086    6.90376826999791
H        -0.64370583993403   -4.08179930534823    0.33444704575430
H        -6.46775616791275    2.28232361333350    7.80484319840311

