52
CSD_code = HEPSIE | q = 1 | S = 0 | Stoichiometry = C22H24MnO5(1+) | MND = 9
Mn       -2.03709407792764   10.64564226362199   11.78661458433981
C        -0.65712671836047   12.41170907548591   11.93235134528270
C        -0.95128652179406   12.25830602706208   10.57493748541705
C        -2.28892772221986   12.38271404514649   10.10752195559188
C        -3.30505480888178   12.50179831788040   11.08345246040179
C        -3.00863438334569   12.68666145601183   12.45390196516246
C        -4.14260298863034   13.05120815960091   13.36775818654033
C        -3.75912293701824   12.98074854573792   14.84063464370339
C        -2.43064925754719   13.70262619470566   15.04710237940427
C        -1.30999870095099   12.89441567756729   14.36058025958772
C        -1.66258729632426   12.62940124756106   12.90680704150906
C         0.06984275894676   13.55427047695076   14.54014323541905
C         0.38905107217283   13.83871510659859   16.01309992122677
C        -0.73751091082487   14.63152618357426   16.66538004405817
C        -2.04726653570496   13.84654226663070   16.51411436762473
C        -2.99930350188460   14.53137328752494   17.49586773606151
C        -2.08956747776291   14.80378206031152   18.70208465664150
C        -0.66276602593200   14.79305424586941   18.18251658124013
C        -0.77243358584823   16.07263806247848   16.13411166802303
C        -3.76915923146457   12.42106746488458    8.23799733962145
C        -3.30383971045423    9.85045845753896   12.79483390125626
C        -2.25247291773560    9.47074254401632   10.42439888760467
C        -0.74972045904106    9.63297453990165   12.55103367981763
O        -4.12962862853207    9.41886271038222   13.44889043510757
O        -2.38154977942727    8.79260789905697    9.52266682757224
O         0.09576965682409    9.05625245388309   13.04448668221395
O         0.33521085592530   14.90095793010389   18.83462858439557
O        -2.46298891272757   12.40178765977070    8.79352113247947
H         0.38622664651453   12.44286015650819   12.22299880334617
H        -0.15885551869135   12.20878541726983    9.83728930701498
H        -4.33477454172674   12.63415324841808   10.76971945826741
H        -5.01272487155088   12.42211940339139   13.16374416395404
H        -4.43182793626847   14.08029269553916   13.12200594481350
H        -3.67295280639212   11.93940689456012   15.16080835858371
H        -4.54055559696359   13.45057655427779   15.43612939930389
H        -2.50165147604678   14.69472513559744   14.59058437365488
H        -1.26495617150190   11.92079107228979   14.87086895673320
H         0.10970967845329   14.48113779076173   13.96455662621573
H         0.85273897276889   12.89156181640935   14.16742594605616
H         1.32972895928033   14.38502951575793   16.08041953723600
H         0.51837370070894   12.89364999629468   16.54520503642898
H        -1.86253503055188   12.83680564614865   16.90452480387361
H        -3.84166121837763   13.89677614688448   17.76590661589044
H        -3.39328786971584   15.45803619990556   17.07873155073313
H        -2.17907620543169   14.02217982686819   19.45807323231027
H        -2.29929204399412   15.75009472946880   19.19985683701213
H         0.16286730694987   16.56181388004873   16.39769780723379
H        -0.88002183086503   16.11188779593894   15.05373677675052
H        -1.58248668070661   16.64171955320649   16.58031680334463
H        -3.62261946334635   12.38669435370594    7.16068710253804
H        -4.34390558405534   11.54631081323837    8.55541866186747
H        -4.30114167201745   13.33844699765247    8.50105590953294

