58
CSD_code = HEPSUR | q = 0 | S = 0 | Stoichiometry = C26H29CuN2 | MND = 6
Cu        4.20892733385511    4.63012219556668    3.26449681215682
N         6.22258044322863    5.47704679722307    5.10537886239063
N         4.34412368746014    6.02551702106208    5.97500035810360
C         4.89148114909425    5.43858580456065    4.88997997716316
C         6.50522479847738    6.07457355064678    6.30187460011810
H         7.50812863907354    6.19925742165117    6.65546139328697
C         5.31751637638980    6.42315787446755    6.85230539156658
H         5.08547116135653    6.90384715068400    7.78035310530247
C         7.18649340885592    4.95396240792626    4.19816647681933
C         7.58437233727997    3.62452281453769    4.32264555270351
C         8.51992668910667    3.13376633478300    3.42744734271787
H         8.83017149582274    2.10201994242260    3.50556037501878
C         9.04864869606522    3.93060864620741    2.42207506710294
C         8.62609234384865    5.24806051030210    2.31990325546471
H         9.01878356129443    5.87260652274148    1.53079481070693
C         7.69298723395959    5.77788984569734    3.19552347977520
C         6.97506148214314    2.74641990344020    5.37237847218947
H         7.01306927049487    3.21473768613169    6.35581043841486
H         7.49114827424085    1.79175634916229    5.41913614306698
H         5.92934381042787    2.55971186305698    5.12537350437943
C         7.19945163939356    7.18521463684948    3.05179921239556
H         6.15802046497216    7.17236825236599    2.72753162278743
H         7.78268461332496    7.72130296712636    2.30855974918293
H         7.25413690405464    7.72501730372733    3.99725849963464
C        10.01360418116885    3.36043855547088    1.43099944270450
H         9.45514027731766    2.91126827327112    0.60936864802602
H        10.62882964858532    2.58582697456179    1.88312732925434
H        10.65742625131465    4.13399761388736    1.01917683264213
C         2.95131705336589    6.20865427193677    6.18463272917673
C         2.18456647906556    5.13786926076100    6.64214429983199
C         0.83292518419345    5.34688373502272    6.86497801026228
H         0.22564630263822    4.52705272439780    7.22002658720464
C         0.24343054512410    6.58364196944311    6.64036919634536
C         1.03095239023402    7.62602450924791    6.17172690895768
H         0.57945237082330    8.58911469227682    5.98267119262020
C         2.38621354117530    7.45797775431353    5.93464662136849
C         2.81668469053431    3.79919507644050    6.86750741799394
H         3.17694404495793    3.39780208144687    5.91935904338985
H         2.09924130821252    3.10179151130274    7.29019987210779
H         3.66822633431308    3.87812126660910    7.54303005522853
C        -1.22338747552371    6.77891274428114    6.86964987119781
H        -1.44724077495117    7.81795152918213    7.09827629077125
H        -1.57588653194703    6.15182959525785    7.68506635661231
H        -1.77629877614465    6.50393896921493    5.97114236368654
C         3.23128019010909    8.57683154002512    5.40604763581485
H         3.98091854600183    8.87896955720086    6.13737951854135
H         2.61667862148412    9.44011616294054    5.16735386754845
H         3.75292900114606    8.25941167587027    4.50351588388966
C         4.69798640336205    2.47156424611845    1.77288944128622
H         4.30904597920219    1.62007847615576    2.31034938353348
C         5.94064043088244    2.57924424044247    1.21235284559538
H         6.72976878099263    1.84645644933785    1.27186259324045
C         6.02904360129097    3.81517821648422    0.53675861447892
H         6.89571449772764    4.16973080544854    0.00161248399933
C         4.84174785295103    4.47935667924611    0.67567749932942
H         4.58188642586736    5.42703861678633    0.22926367981352
C         3.95696674224213    3.70242277103378    1.53303722676984
H         2.89226006807196    3.64723365223624    1.29268575433092

