32
CSD_code = HEQFEO | q = -1 | S = 0 | Stoichiometry = C13H15FeN2O(1-) | MND = 8
Fe        1.88526949289934   10.28482108194555   10.14697876637164
O         2.31994754426987   12.44232666776109    8.26598076751895
N        -0.51835682979383   11.67763963780977   11.28505747492293
N         3.76698069457059   11.54680219118250   12.11533391389740
C         0.45961664360811   11.24514785277624   10.84492484623150
C         2.99788313975230   11.16846223179701   11.33927794030953
C         2.14729098634018   11.55794241625765    9.00541782952869
C         0.64110171082890    8.28091312784465   10.18908726242613
C         1.62360157442540    8.24606816649743   11.22603748870892
C         2.91367804348012    8.21142270459779   10.61214064039451
C         2.73109297282931    8.29056693603680    9.20656111063245
C         1.32143600907660    8.33420768538389    8.94404700263650
C        -0.83468089666238    8.12324997356093   10.40660822754726
C         1.34617530689111    7.99055699750429   12.67827862819633
C         4.19996266198359    7.97242648431170   11.34603227350168
C         3.79706823439625    8.12489396421293    8.16284899651002
C         0.69339520256779    8.21922536748869    7.58557301270225
H        -1.19996141367453    8.86052506830977   11.11993127567925
H        -1.05306135000287    7.12563594813824   10.79817584699934
H        -1.38196713453920    8.25558337007760    9.47589922381441
H         0.40606073545707    8.45113615599358   12.97474252700147
H         2.13890218584172    8.40529377088069   13.29751460618051
H         1.28120908351107    6.91474610708475   12.87420830008472
H         5.05198299126322    8.04656431368916   10.67388042391838
H         4.19820361605893    6.97482496249216   11.79406748112895
H         4.33217097856801    8.70574477009743   12.14019231977773
H         3.53830888321914    8.66201879644072    7.25198078615118
H         3.92254745391307    7.06732062247636    7.90898874609548
H         4.75262753253272    8.50700898826948    8.51670410384004
H        -0.29486965463843    8.67480492826686    7.57256207533205
H         0.59063354144632    7.16745057290015    7.29945273619638
H         1.30125005958038    8.71616813791338    6.83151336576358

