69
CSD_code = HEQFIS | q = 1 | S = 0 | Stoichiometry = C26H40IrP2(1+) | MND = 6
Ir        6.12816043153262    7.26214549226043    8.38139253119002
P         4.59366291930738    8.23292092870201    6.93287524450158
P         4.95832552943539    8.42101716118853   10.01540383157482
C         6.91943717745348    6.03632258483196    6.75539897064199
C         7.85371048088736    7.01113947978241    7.06559032762210
C         9.14104338012493    6.73236437042411    7.80403439846437
C         9.01752168701196    6.93272136989583    9.32636053207399
C         7.62970693235873    6.67334294988946    9.85405906330734
C         6.86511136114931    5.56233691094263    9.53519940715382
C         7.36207005665556    4.42277932177612    8.67819584371249
C         7.01378058252874    4.59532891542750    7.18740405983304
C         5.16467420285789    9.23351523770644    5.46304798635843
C         4.21813141496448    8.89385481369470    4.30673836887342
C         3.84333586857261    7.42305105645852    4.45652250504318
C         3.40505395037258    7.21445958401943    5.90834128535230
C         5.33666062708737   10.71895412920393    5.74699392629218
C         3.31427826817492    5.75684883048608    6.33577627532567
C         5.76424098750575    9.80284994677154   10.98459599495517
C         5.85622609117492    9.28656917051950   12.42264868940767
C         4.55817628101134    8.54143445971221   12.71634246547124
C         4.33010542622579    7.56946752785775   11.55363169755640
C         7.08813147322745   10.26656000410632   10.39528717579733
C         2.91814115536012    7.01424634111835   11.43234684101488
C         3.41983095000660    9.27610022069020    7.87346146020556
C         2.38977736287531    9.98623883714970    7.26268557807713
C         1.50560442267831   10.73385019854795    8.01833733637777
C         1.63987066390096   10.77965691955949    9.39678102239962
C         2.66095236714366   10.08139517005839   10.01432572942888
C         3.55418857839632    9.32153714267932    9.26415233127449
H         6.32352508144504    6.18138600429488    5.85657480183649
H         7.87752253808146    7.90456766025330    6.44394564409407
H         9.46291754987639    5.71556058834359    7.57922001255451
H         9.91322622398669    7.40456270338189    7.42859930398238
H         9.29296669086167    7.96004394107459    9.57144288901766
H         9.72689489817128    6.28123649674036    9.84576694168608
H         7.42983976182373    7.16519215216897   10.80414509209507
H         6.05308781475438    5.29572281576070   10.20969641346844
H         8.43999274668472    4.32744122148570    8.80861254655573
H         6.91184881778875    3.49497848363288    9.03262818307029
H         6.05394719424837    4.11413431102893    6.99131913931244
H         7.75846594359142    4.08300722585173    6.57066974915864
H         6.15101068503511    8.81532982373822    5.22046228600557
H         3.32270215650483    9.51504498717500    4.34931456428114
H         4.70318088048002    9.08403294877245    3.34882879576556
H         4.71096766977444    6.79784824080819    4.23248655820310
H         3.04532281221378    7.14174768201350    3.76919176563663
H         2.41943239880459    7.67334083007472    6.05081999323360
H         6.01998954238214   10.86875867431475    6.58172972063614
H         4.38840347999606   11.19007782473626    5.99396057809531
H         5.74880299234848   11.21971870623171    4.87350389400861
H         3.11499128598485    5.68661236463816    7.40390281189008
H         4.23501548685667    5.22410791731634    6.11813224723374
H         2.50512832984975    5.26123758749293    5.80333405600362
H         5.06024843614570   10.64319141614343   10.95390702005789
H         6.70350266566495    8.60413478110542   12.52324497577398
H         6.01022219403589   10.11123998018189   13.11876425996425
H         3.73127735425563    9.24817695899735   12.79482349152856
H         4.61636302975335    7.99940937035294   13.66070779519067
H         5.01772881387101    6.72349540277271   11.68933424750966
H         6.96303647133534   10.53368726600154    9.34714821964723
H         7.84310013196443    9.48935998939554   10.46726746944845
H         7.45112552766038   11.14156783129629   10.93046416268468
H         2.84898772620685    6.33935907625660   10.58035084745584
H         2.18636201074343    7.80692307009745   11.29894882362943
H         2.65857066908533    6.45863381429077   12.33100633943524
H         2.27038709919090    9.95791424406836    6.18996359711495
H         0.71207513574892   11.28105811917575    7.53337660458267
H         0.95046367994045   11.36153754813372    9.98877346040133
H         2.76055544292777   10.13481086450973   11.08799981808765

