114
CSD_code = HEQGIT | q = 0 | S = 0 | Stoichiometry = C50H56Br2N4OZn | MND = 5
Zn       -3.98281175968993  -14.62369743011105   -4.00924408951800
Br       -4.53135901918859  -10.05778574142935   -7.64867546139309
Br       -1.22104860313851  -13.05499600719145    0.90730923269254
N        -5.91881582348024  -14.07646135435089   -4.37078030890588
N        -3.67973097197902  -14.41924325703545   -6.02234164493840
N        -2.16534155787375  -15.51159613319420   -3.72325763647425
N        -4.36688293101250  -15.06693913390141   -2.04792826243761
C        -6.52273831260089  -13.73239500115324   -5.54005565786401
C        -5.85716524254216  -13.61944827143593   -6.76757867913841
C        -4.50908913736791  -13.92589938852050   -6.98255332696712
C        -3.77516401562169  -13.77030851718806   -8.23073128610594
C        -2.49819016879831  -14.17262276636323   -7.97445291428391
C        -2.46584687682122  -14.59340999924826   -6.59653564590705
C        -1.35218471229250  -15.14971022695882   -5.99505267447195
C        -1.23673201444946  -15.62623177768114   -4.70205592950750
C        -0.07746518269327  -16.32767686057105   -4.21217335487192
C        -0.33559506862869  -16.64683117873913   -2.91174416662983
C        -1.64253770906324  -16.08485931430296   -2.60600626012571
C        -2.25601967249248  -16.06002998136759   -1.34698612474883
C        -3.53270773117900  -15.55146486202941   -1.08712572782973
C        -4.17757756860641  -15.45780931228235    0.21461942243793
C        -5.41370397273253  -14.92918959028048   -0.00987242883340
C        -5.51325552931348  -14.69789174917847   -1.42915934662712
C        -6.65181464652126  -14.21446698318656   -2.04678454623678
C        -6.85350728466760  -13.98282968534770   -3.39527587980197
C        -8.12285677061696  -13.59280366467655   -3.95472833163497
C        -7.92901060429360  -13.44502407343470   -5.29672566346723
C        -4.25391637588967  -13.29814147263744   -9.56071667835321
C        -1.33848146975838  -14.22998882374852   -8.91273580276001
C        -1.25432793086742  -15.59375010479652   -9.60227444042660
C         1.12131355541119  -16.67345234772657   -5.03274027495759
C         0.86917773517292  -17.92612517259645   -5.87521350410565
C         0.55826026724826  -17.47675094206693   -2.05172060008856
C        -3.65928578897560  -15.84235686618623    1.55848564356358
C        -6.46724457636554  -14.58373589242422    0.98986949275287
C        -6.36652171264484  -13.11064703869476    1.39429269423748
C        -9.37402410649095  -13.37673610529052   -3.16898071971683
C        -9.45034576375704  -11.94007050591956   -2.64626603310812
C        -9.00450076318551  -13.10297179233714   -6.27224448530074
C        -6.63281484759472  -13.09746847870555   -7.91950635749574
C        -7.17626850194181  -13.97877720329560   -8.84808904473241
C        -7.89359882424084  -13.51170405136160   -9.93397634996838
C        -8.07250540853131  -12.14923408229131  -10.10932318917775
C        -7.54499674119829  -11.26355131482648   -9.18909557802566
C        -6.83577065817005  -11.72408633114259   -8.08475313892932
C        -6.29612032200421  -10.74880198515187   -7.09543113689888
C        -1.47364928253419  -16.57795001767509   -0.19816483801069
C        -1.70568710267113  -17.86426246306346    0.27708526849776
C        -0.99194332754719  -18.36357047600276    1.35081833624322
C        -0.03732970019624  -17.57514085837428    1.97218395768514
C         0.20754023309680  -16.29774097150624    1.50540981724657
C        -0.49196513403414  -15.79278659326925    0.41426798223973
C        -0.19273856902114  -14.41923872780301   -0.08087127009363
O        -3.26259773500440  -12.55888235797817   -3.55881648732862
C        -2.85554674941264  -12.16780416514120   -2.25725215350662
C        -3.93916435639203  -11.41103682845632   -1.49706126908097
C        -3.18808598469053  -11.54184295257776   -4.54510862311865
C        -1.77827699815315  -11.34197714477280   -5.09084515667868
H        -0.47748544339283  -15.25466825476229   -6.61902028289155
H        -7.49251908517908  -14.01384076430621   -1.40002098053534
H        -4.75920966763363  -12.33851921557995   -9.50054549813655
H        -4.94366916682869  -14.01421426718248  -10.00541666551645
H        -3.40596966524123  -13.18678892763207  -10.23210613820744
H        -1.43492149303783  -13.44867668513005   -9.66925481598539
H        -0.41144773772085  -14.03826700831692   -8.36850346571844
H        -0.39931926630141  -15.63073608767232  -10.27418464496904
H        -2.15760682742973  -15.78035941210530  -10.17844746383172
H        -1.15258811519430  -16.38663533053717   -8.86448895148007
H         1.98191946555295  -16.84092835125845   -4.38198419453279
H         1.37087787119091  -15.83822202534751   -5.69136783845486
H         1.74104048001008  -18.15988005482395   -6.48276141006170
H         0.01525397904770  -17.77564173027435   -6.53160305748438
H         0.65538635787052  -18.77670256370157   -5.23179094144666
H        -0.00047231151796  -18.26161831648292   -1.54780536390378
H         1.06102494805570  -16.88100480881250   -1.29017934998542
H         1.31998521671634  -17.94706358825552   -2.66920826546233
H        -2.67636882740514  -15.42375735637823    1.75207182201374
H        -3.58947534341124  -16.92482676656254    1.65970188777608
H        -4.33177864743085  -15.47007511019097    2.32702610417591
H        -6.35924183629665  -15.21029995119850    1.87694489394739
H        -7.45747622053325  -14.78182480314586    0.57383102422490
H        -7.11746524481229  -12.86795404575721    2.14321950395484
H        -6.51643201507027  -12.46755388982419    0.53014641759985
H        -5.38177270280192  -12.90048895985941    1.80546824804902
H        -9.41075253334977  -14.07312729762230   -2.32911532445560
H       -10.24754731746565  -13.57656217114790   -3.79322341050735
H       -10.35695713792506  -11.79307124351122   -2.06312390662608
H        -9.45451663547013  -11.23748358976749   -3.47679805721824
H        -8.59162565080926  -11.71843327927643   -2.01630238060469
H        -8.99818242469185  -13.77792884552682   -7.12454150609082
H        -8.90126993247055  -12.08556999542308   -6.64817638637769
H        -9.97386237147776  -13.17892254824218   -5.78442416749368
H        -7.02954926454304  -15.03968524293739   -8.70391361005906
H        -8.31074042881774  -14.20858141968867  -10.64578252481103
H        -8.62325287912144  -11.77751035572120  -10.95998089661702
H        -7.68237254904027  -10.19960017092062   -9.32418099845419
H        -6.13390704252042  -11.19915455464559   -6.11782899412747
H        -6.92617838988305   -9.86431697588325   -7.01137865277572
H        -2.45575539539571  -18.46988956293053   -0.21125473373864
H        -1.18215208598463  -19.36527758843063    1.70679411640323
H         0.51663585714118  -17.95511744005220    2.81709093938933
H         0.95146513340061  -15.68009115164191    1.98945109677159
H        -0.46924242967136  -14.28662726602076   -1.12520308216661
H         0.85061768924362  -14.14943546705277    0.07688643255961
H        -1.93587107197354  -11.57306700100975   -2.30698082965256
H        -2.64554601656292  -13.10260280448598   -1.73826978333525
H        -3.63047505562951  -11.28496220900459   -0.46306522692482
H        -4.86198970041580  -11.98524429552877   -1.52442170480506
H        -4.12052914553747  -10.42950816239615   -1.92892810241120
H        -3.58307478942657  -10.59814704408643   -4.15047133860161
H        -3.83487226577490  -11.88727998392854   -5.35114966612296
H        -1.81590189633709  -10.66839535111698   -5.94243826147246
H        -1.37843548861339  -12.29968562930611   -5.41518909827617
H        -1.11505765407152  -10.91826674863375   -4.34032988153812

