102
CSD_code = HEQHUH | q = -1 | S = 0 | Stoichiometry = C44H52O5V(1-) | MND = 5
C         1.66702828328386    4.51689611481685    8.08222557481744
C         2.33277656509135    5.00780197335896    9.22947735123725
C         3.32563668246422    4.26702766614387    9.84652985001119
H         3.80500740102503    4.70642058447948   10.70893246958005
C         3.69668378504719    3.00712637654907    9.39606783192392
C         4.78603239691336    2.16967730220102   10.05129817658899
C         5.45466131982270    2.88762770421225   11.22720024064142
H         4.73399974943364    3.10092444798460   12.01342118365965
H         5.91021026360144    3.81982579496710   10.90170188896683
H         6.23648263291160    2.25512072363570   11.64721385134567
C         4.17487677658271    0.86267645748531   10.57748741395996
H         3.73446841556386    0.28538798052066    9.76937155331505
H         3.39339047821877    1.08136273404626   11.30252345892450
H         4.93693429778909    0.25168669668222   11.06075199649675
C         5.86979299326107    1.85000777860713    9.01188219967809
H         6.29936307916738    2.77229612794753    8.62662150959116
H         5.45707540182189    1.29616910772421    8.17336483762792
H         6.66549795933553    1.25475529911087    9.45948627888593
C         3.00577050926138    2.50096631581969    8.29861019039073
H         3.23672374466846    1.51237151891254    7.92336910711247
C         2.01140826555862    3.21103959316432    7.65584192925247
C         1.28311616964769    2.60547731512408    6.47746943228339
H         1.04404841136207    1.55780188706506    6.68208510263205
H         0.35627457460442    3.17184286189162    6.32702372839911
C         2.13336328146668    2.70659678882223    5.24081369067351
C         2.80539000562743    1.61478307054692    4.71598653434125
H         2.67530067026380    0.66612086510866    5.21405944363353
C         3.61520751880422    1.71859041664695    3.59271943673454
C         4.38547134723526    0.54173177690917    3.00956664172425
C         4.18649105783602   -0.74949435870427    3.80840920475518
H         3.14112179753007   -1.04930159706745    3.81026556317741
H         4.52251871280083   -0.62535840805275    4.83505887813969
H         4.76774023883116   -1.55273275535568    3.35680540353364
C         3.91394841819148    0.28887190816646    1.57062093149660
H         4.08136525343218    1.16083945386661    0.94473056861511
H         2.84933648902177    0.06447544793733    1.56086291034170
H         4.45119594277576   -0.55365092983242    1.13664407047704
C         5.88467335221014    0.87411978401841    3.01284905000239
H         6.21704424340144    1.08650718340914    4.02678525316951
H         6.09459209822975    1.74563457851132    2.39938509741617
H         6.46214989102404    0.03564374421978    2.62508296977723
C         3.71629519600165    2.96838031839373    2.98741730217802
H         4.32008504594197    3.09104740810214    2.09855475899324
C         3.06449162393860    4.08301996434671    3.47964312623865
C         2.27795094703359    3.96826034488816    4.64028198915923
C         3.20610957574208    5.44241455067365    2.85295328814213
H         2.22324707039863    5.92647490091254    2.80905610103703
H         3.61463986965356    5.34821491679950    1.84250801781022
C         4.11245248785753    6.30497217958856    3.70158077906116
C         5.48186183713825    6.13754027351292    3.64836080826850
H         5.86701913996182    5.37252500977756    2.98668854598468
C         6.36005560807072    6.91250025695111    4.40074278067364
C         7.85831738850012    6.66249121352701    4.30222826687932
C         8.15432174887319    5.21342787258652    4.71433766433295
H         7.63623730238196    4.50860743542406    4.07011538209144
H         7.82140279606432    5.04222857051656    5.73580124513315
H         9.22356148082570    5.01041125252805    4.65722589477160
C         8.31853001147652    6.89134979192277    2.85502400621784
H         8.09456923787171    7.91129800087919    2.54869211001833
H         7.81151658244504    6.21434754272122    2.17322277491713
H         9.39233099215222    6.72881491232874    2.76521901418352
C         8.67138751994743    7.58919591202393    5.21081784267364
H         8.38529970037389    7.45819255132252    6.25169683135020
H         8.52809938186438    8.63081844255075    4.93226684372831
H         9.73205368035640    7.35691592294716    5.11754700798624
C         5.80036699096626    7.89958086219545    5.20091840121686
H         6.42805962430920    8.55263248771144    5.78919879017416
C         4.43294944065731    8.09807902578770    5.27880832254703
C         3.53702837052214    7.27249442124552    4.56066383675783
C         3.87761600924799    9.20060229616139    6.15200301524881
H         2.84158667653672    9.38488044762353    5.84340176065664
H         4.46650279882224   10.11364434624988    6.02419263562344
C         3.89752059136842    8.77420689332850    7.59370471199935
C         4.81907906260037    9.26307449372977    8.50002743344005
H         5.52753671808058   10.00051613762978    8.14812037827632
C         4.85492297039805    8.84100673324237    9.82646864521657
C         5.91453386609300    9.40732171937117   10.76194075385442
C         7.30563444396887    9.08030269404808   10.19995790036872
H         7.44708672431625    9.52421124113916    9.21870674396705
H         7.42448087108929    8.00312337652123   10.10397393049240
H         8.08326053739864    9.45860035442335   10.86256906156889
C         5.74152427899340   10.92943684444011   10.86232225784379
H         4.75164330768074   11.16781493475927   11.24589108024631
H         5.84991326072406   11.40096293892275    9.88972543134084
H         6.48664408485262   11.35351196184553   11.53445744597215
C         5.82733149412375    8.82529341929971   12.17572753818989
H         5.96003283478865    7.74617578846779   12.15976577060948
H         4.86926601954047    9.05860958440455   12.63431766728204
H         6.61296228055788    9.25385019971324   12.79711455936912
C         3.90591435002106    7.91040689832809   10.22888099296447
H         3.87608966444927    7.56181330034888   11.24987736088688
C         2.96416699468214    7.39588487393747    9.35275941434314
C         2.96597328436336    7.80566211890533    8.00923904085067
C         1.95290460928437    6.36581382646174    9.77540190786223
H         0.97249353939103    6.63175155208533    9.36213752447995
H         1.89278909501805    6.32779847870588   10.86699097156191
O        -0.06812162085423    6.91983488171793    5.70400474888552
O         0.72738083330699    5.20316613996557    7.48892678870667
O         1.69333503706892    5.02179815652903    5.15325785022743
O         2.24363305909089    7.44087140427827    4.63040460364242
O         2.11655516979007    7.29229404374526    7.15502857699634
V         1.33349602674224    6.37935424592640    6.02442695916930

