115
CSD_code = HEQPEY | q = 1 | S = 0 | Stoichiometry = C62H44Cl2CuN4P2(1+) | MND = 4
Cu        1.89144130800621    3.35402337617078    4.61367044489909
P         0.79509926035549    2.02185228602185    3.08398722463249
P         3.68033626074738    2.64256732916683    5.82016609797922
Cl       -0.33176739373718   -0.10654287600186    8.53336422224076
Cl       -3.38478523505648    0.47193368436238    8.54617201817617
N         0.26942429873212    4.03387556877971    5.68906358590006
N         1.83792073202108    5.28071432035452    3.96225470493784
N        -2.46095437567181    4.45406159467162    5.55168938816131
N        -1.41242493671918    6.82339369764298    3.14296112179014
C        -2.33115805591314    1.53164982643128    7.70318553149022
C        -2.83661839043743    2.61196416093133    7.02471489102999
C        -1.97073011336116    3.46350429173865    6.31264921741157
C        -1.63161227411885    5.24578787765803    4.90728962088077
C        -2.22502718188710    6.19219644299286    3.95837152239250
C        -3.62980672429133    6.34781567655075    3.91778322398418
C        -4.17015604785649    7.19303359330651    2.99054665364603
C        -3.32060307921709    7.89061432730378    2.10579436706354
C        -3.78572456032103    8.77996176994913    1.11802738420368
C        -2.90114380135022    9.42446929598806    0.29782510142283
C        -1.51771168839608    9.21308128091005    0.43072523946111
C        -1.03144505594204    8.35478416922801    1.37609113306729
C        -1.91962917048508    7.66910226311533    2.23305905264725
C        -0.22124604838907    5.08415958486778    5.04912567489228
C         0.81138704388077    5.94148083298457    4.46469633078429
C         0.77511098305549    7.34914219526210    4.52007641122733
C         1.81174357348691    8.05561656387816    3.97918205177053
C         2.88143875260276    7.37139574755295    3.35821521215718
C         3.96437266037755    8.02208334847275    2.73771604030755
C         4.97135367209667    7.29561517104036    2.16002132687948
C         4.93796896146432    5.89300830658638    2.17695100137673
C         3.90217519506847    5.22956099336127    2.77721614660160
C         2.85715512685977    5.95129920715549    3.38254308583157
C        -0.57102121645076    3.20439304332758    6.33826320277965
C        -0.07278316486926    2.09761877837709    7.04231984528175
C        -0.93799995713031    1.26758665241922    7.70641290176497
C        -0.01279210328462    0.43031694877476    3.45699766330287
C         0.47246357931383   -0.77555112160599    2.95839350531499
C        -0.10441071115111   -1.96926906244227    3.35342835912810
C        -1.15594198162059   -1.97527051433566    4.25538246088870
C        -1.63438476862703   -0.77915268967124    4.76486691741229
C        -1.06204753913216    0.41660243589944    4.37427680989073
C         1.93657871891825    1.58717001279909    1.73334938712735
C         1.48937423767129    1.32651208733265    0.44068924820687
C         2.40068313624658    0.99925141595322   -0.54593905790796
C         3.75508296802746    0.93055638806603   -0.25410464412796
C         4.20343513970129    1.18690361713393    1.03111928603868
C         3.29503300568694    1.51425625044176    2.02121009463734
C        -0.45245418175644    3.00152052001366    2.18608672866375
C         0.04430096495930    4.10643854089234    1.49381999782945
C        -0.81217464152876    4.93686105796081    0.80110356876864
C        -2.17682426366708    4.69219517274838    0.81786329161915
C        -2.67620200823834    3.61188364877198    1.52363331202992
C        -1.82014231316863    2.76180905546538    2.20417893873354
C         3.35232071396227    1.00684243544006    6.55902092517911
C         3.70667433400773    0.65972198911455    7.85773446789232
C         3.38342895493854   -0.59558691975019    8.34351608431494
C         2.70463536112263   -1.50355407387555    7.54708593278571
C         2.34142369453679   -1.15834179480569    6.25453895006182
C         2.66153261506111    0.09263816518313    5.76501488985836
C         5.29625949515769    2.41596513579828    5.01230424027552
C         5.77558638786346    1.16740422845856    4.63069884650451
C         6.97171281647526    1.07221856468208    3.94072845921811
C         7.68752862600113    2.21448733978803    3.62201415911941
C         7.20739358181304    3.46081362488364    3.99477395378669
C         6.01343478961892    3.56453435477509    4.68160450236472
C         4.10856397241213    3.68625523176644    7.24571028017296
C         5.34498335558075    3.61626134312376    7.88295724295487
C         5.59957391739741    4.42675179538424    8.97382366894414
C         4.63100840646263    5.30723730716776    9.43103450201731
C         3.40254596247543    5.38250054476838    8.79486924692480
C         3.14085139060791    4.57539103147897    7.70254294580847
H        -3.89523772739886    2.81382546721635    7.00742182893458
H        -4.23322115861318    5.79489664791633    4.61805067339915
H        -5.23886579933890    7.33925607948915    2.92333262753810
H        -4.84938581662071    8.94301496850584    1.02312003460559
H        -3.25967866082980   10.10555497413585   -0.45881811846814
H        -0.84059656655300    9.73871560869630   -0.22586458226429
H         0.02663016194057    8.17908566402112    1.49649379633030
H        -0.04751116084099    7.84331587248396    5.00887238918950
H         1.82588006065478    9.13500842263577    4.01509275396555
H         3.98403044266075    9.10174539639083    2.72516706152253
H         5.79813706432322    7.79946900343480    1.68334100199708
H         5.73582019864117    5.33560990589255    1.71028602651222
H         3.85633641152855    4.14956349447738    2.79424824889041
H         0.99052711563632    1.91018478864175    7.04090597668697
H         1.29866335516293   -0.78230826178974    2.26161490793766
H         0.27231323063422   -2.90014003645008    2.95612491069412
H        -1.59929415722567   -2.90976345627131    4.56322742274295
H        -2.45127620061530   -0.77661616749992    5.47075219842536
H        -1.43081548644499    1.34639528508357    4.78237299283777
H         0.43322901848482    1.38034938753891    0.21558653261733
H         2.05424493684839    0.79518838218575   -1.54784846091964
H         4.45991363048310    0.67603215759390   -1.03078936172305
H         5.25652467272694    1.13443933093374    1.26541970887133
H         3.63522125041245    1.71357711841963    3.03145865719508
H         1.11067680359691    4.29509535839770    1.49197388370866
H        -0.42046263821385    5.77743647931709    0.24878761143568
H        -2.84819170785273    5.34514223965532    0.28043354206441
H        -3.73873111780230    3.42053240847467    1.53917928071463
H        -2.22173842062038    1.90661606736826    2.72743023780529
H         4.22458940071336    1.36736283999529    8.48872902422803
H         3.65942849721283   -0.86378023226163    9.35216829627729
H         2.45218841358438   -2.47815949843829    7.93598294602193
H         1.80178361803825   -1.85651971163529    5.63216926718348
H         2.36776948650444    0.37872072700218    4.76062299518635
H         5.21978459255406    0.27363401305089    4.87831022966716
H         7.34642896293604    0.10107320326960    3.65354557123531
H         8.62047406695356    2.13413866348633    3.08518268668934
H         7.76576905818831    4.35213820162359    3.75056278715546
H         5.63098752312752    4.53359322851277    4.97555981949830
H         6.10248692936551    2.93423023812039    7.52143387895414
H         6.55672467872331    4.37159712626258    9.47028431854481
H         4.83678207259531    5.93740508068854   10.28275087597549
H         2.65085624170331    6.07196711407287    9.14945074701978
H         2.18788975218221    4.62659796928814    7.18981262846553

