110
CSD_code = HEQQEB | q = 0 | S = 0 | Stoichiometry = C35H59AuB9O3P3 | MND = 3
Au       -0.12693460468462    8.69787877825009    4.86384606570379
P         2.00021750398246    9.02245795091977    5.95522504005374
P        -0.98153610388231    8.51476436323884    7.22405961261158
P        -1.05016267909252    8.07808605159576    2.81443715344314
O        -2.55058723384778    2.35078030149249    3.25172684006423
O        -5.77729587471048   11.14937540417316    0.92103551655572
O         2.75353432848012    8.63308823686955   -1.73006809012521
C         1.89734831635811    8.72920542658529    7.76099301823374
C         0.45512836816416    8.44922980140843    8.37582916857846
C        -1.73955876019717    6.80137254450837    7.26816954977195
H        -2.05114166508878    6.56764020077562    8.28924976422840
C        -0.69356325193245    5.78963255996946    6.82032593041034
H        -1.08932697409968    4.77645286405910    6.88115449168118
H         0.19412724630621    5.84772297685492    7.44554452199533
H        -0.41436365555225    5.97773424027367    5.78224381251399
C        -2.93812236123598    6.73748214328330    6.32554287091046
H        -2.66435192880802    7.12274972954984    5.33987719472943
H        -3.78269066975240    7.31303256763471    6.69507035025501
H        -3.26330344434813    5.70489702088429    6.19943357703800
C        -2.28534823899826    9.58810873649722    8.06618370209814
H        -1.69173839559053   10.36473260434594    8.56249672994912
C        -3.14887875274557    8.89779962164839    9.11635985060655
H        -3.70754527126270    9.64901055573091    9.67439815915253
H        -2.53263399822365    8.34372902206766    9.81961898195553
H        -3.86607397492920    8.21732616198160    8.66320534382504
C        -3.14324641370830   10.28115547500412    7.00782252136147
H        -3.74120345328992    9.56576360647225    6.44610054859066
H        -2.50949507782264   10.82999092074199    6.31087213977912
H        -3.82142421214124   10.99102062057761    7.48062581260529
C         2.88837009315274   10.66253827499554    5.70620154816968
H         2.56801578215694   11.25793230534535    6.56981500541573
C         2.36322860592573   11.35439753618815    4.44884969086810
H         2.75818880161432   12.36763809712347    4.38375097086974
H         1.27437534649729   11.41245909961616    4.47484891423310
H         2.65555113704609   10.81764904914570    3.54836563730849
C         4.41221721242569   10.59806250487078    5.70999326308567
H         4.79874835478262   10.13579974390757    4.80474170643812
H         4.77280640799317   10.04079999233321    6.57085948670963
H         4.81552411102669   11.60879080814694    5.76769699746892
C         3.18244023892214    7.75313295786604    5.25105347354628
H         4.17158876290887    7.89108122520132    5.69518648271058
C         3.26358220700164    7.91368937218064    3.73491817945813
H         3.85920266071387    7.10977802063190    3.30325937996882
H         3.71568190480976    8.85778045489528    3.44325389301023
H         2.26446327667802    7.86822833133608    3.29512624203462
C         2.67404096990923    6.35455477677904    5.57717613088594
H         1.69678919020595    6.19453147566099    5.12191801424833
H         2.58855260134095    6.21097211397399    6.65102411258696
H         3.35846228487418    5.60267895574189    5.18594526007171
C        -1.58372705480477    6.35141290931249    2.80341794218153
C        -0.60825844487874    5.37580591572654    3.02560701762058
H         0.43275474037508    5.66822908154153    3.08014194918619
C        -0.96231815889594    4.05577712343160    3.16303615889568
H        -0.22111343027143    3.29096318430196    3.33231439058985
C        -2.30777592575603    3.67454872930160    3.09849876778547
C        -3.28174932164605    4.64722970485508    2.88989313348250
H        -4.32682853719704    4.38503442855734    2.83956444225142
C        -2.91872244086354    5.97506407309403    2.75199763686832
H        -3.68423086769939    6.72377967406338    2.60198500117808
C        -3.88208551824140    1.89386030894895    3.21561109266304
H        -4.48129704192342    2.33959614919154    4.01567004687578
H        -3.82705347611039    0.81703401127663    3.36524140637315
H        -4.35168696702463    2.10100146937632    2.24881014518911
C        -2.49388255877956    9.00018982639544    2.22623134835236
C        -3.18479935811161    9.78807593786040    3.13609477269522
H        -2.84546033699260    9.82409950655301    4.16275454664118
C        -4.29153546503051   10.51975990929727    2.74720073650898
H        -4.80770392891156   11.12098683475482    3.47883308282089
C        -4.71564702766018   10.47378558565516    1.42161098255611
C        -4.01418889430999    9.68253873033942    0.50328819699079
H        -4.35847853100147    9.66473045684075   -0.51882558762402
C        -2.91611908209140    8.95547479517818    0.89739650958657
H        -2.37658950467612    8.35119849697291    0.18174742057555
C        -6.51730630383617   11.98639271361710    1.77936897417909
H        -6.97336644801869   11.42036673365159    2.59740151332149
H        -7.30127474832880   12.42061341988633    1.16153678757771
H        -5.89572771528256   12.78729375241476    2.19133775751617
C         0.07911364445087    8.19668539012392    1.39857396814500
C         0.83514480750749    9.36057006830997    1.31408161271510
H         0.71138742780435   10.12172348971567    2.07433501401275
C         1.73617982775396    9.55310568858554    0.28588155285274
H         2.30698062487200   10.46753941979767    0.24878862599376
C         1.89817754577992    8.56333724019851   -0.68173481730144
C         1.13850613114528    7.39255859007698   -0.59577924379459
H         1.27796663328958    6.63855041823401   -1.35444807360157
C         0.23983702470648    7.20836529445992    0.43059331476606
H        -0.33657408728472    6.29556813415496    0.48483698188785
C         3.56328490643246    9.77666229438766   -1.87261166683708
H         2.96131490145244   10.68014418731559   -2.01150809096055
H         4.16209936373987    9.60285782148402   -2.76492181227433
H         4.22672283326730    9.90796234968886   -1.01221851085348
B         0.47110945725430    7.48740242037229    9.66941881386730
H        -0.40918686534256    6.71646228216769    9.83849112541978
B         2.27086554348570    6.94784537864234    9.82506285327952
H         2.74766762024585    6.11541386516195   10.53252283007741
H         1.93843377445155    6.34800655463253    8.84111796253090
B         3.11554567305457    8.01780372747722    8.54564820945675
H         4.05057278269265    7.62414054892583    7.93824060213568
B         1.15102201435688   10.01285478729137    8.67368677459972
H         0.70009928682502   10.92740089486274    8.06391017601157
B         0.31031143434280    9.22137560057365    9.99198008583988
H        -0.71305087047632    9.65312745520646   10.37898936975949
B         1.45027197059635    8.21422399982573   10.86435332370653
H         1.33709661016589    7.98185965906957   12.01630687749345
B         3.09639544321500    8.55496327781255   10.16038649363149
H         4.05290682403572    8.53615975906703   10.85171822523413
B         2.86944807757856    9.73779299414811    8.87823804064730
H         3.63740072033043   10.53201185745790    8.47196620007278
B         1.88239534615591    9.88219599210611   10.29956020649781
H         2.00886720258429   10.80496951302285   11.02390223465649

