43
CSD_code = HEQQOK | q = 0 | S = 0 | Stoichiometry = C21H15MnO5S | MND = 8
Mn       -1.73602608877542    0.56055775346195   16.35237531595687
C        -1.06719497135029    0.05960199270549   14.26586552804949
C        -1.95640565315051   -0.89613616867860   14.78841620043055
C        -3.24399822446785   -0.53499004866281   15.22358513882324
C        -3.63741489527015    0.83709732763229   15.14011661961472
C        -2.66756674298126    1.77101852506378   14.74278911837683
C        -1.67174919260152    1.32012327114286   13.67917519083715
C         0.29719945548218   -0.42056907944562   13.96154674507438
C         1.15504732084872    0.35585710298707   13.06254807649862
C         0.89699755750434    1.08433342852011   11.92994765815993
C         2.06381791417119    1.59401520291031   11.33326564123297
C         3.19138771901492    1.25018879259196   12.01547889575445
C        -2.38367600060995    1.14653366278091   12.34902611037428
C        -2.67721758633112   -0.09758077563093   11.80776602855405
C        -3.37219695458227   -0.19666079169675   10.61406095958759
C        -3.78664756279243    0.94390318842975    9.94999260486976
C        -3.49518490241577    2.18979970773078   10.48060699314863
C        -2.79835274446294    2.28884520772315   11.66997385668085
C        -5.29580074537215    2.45654839997066   15.68175272913654
C        -2.63054239870304    1.13198048081450   17.79403287999611
C        -0.86941125269558   -0.67877559271403   17.32412372721294
C        -0.40329210367010    1.74895828324237   16.39888598636142
O        -4.89209744575798    1.10951628781869   15.55435612643634
O         0.72607815583991   -1.44308086229205   14.48185016216823
O        -3.24246578372827    1.50136276144957   18.69442903783467
O        -0.31133208487773   -1.48062970382888   17.91755559966741
O         0.45953012677245    2.50180328148560   16.33450038896730
S         2.86049100630681    0.27338862603628   13.37947281538534
H        -1.62444334515969   -1.92983720919649   14.87081299064125
H        -3.99306595214894   -1.27656381566089   15.47505481556396
H        -2.95124558881806    2.81904199797385   14.69678692336434
H        -0.90381164608021    2.09398573091845   13.56435887321605
H        -0.08221126832529    1.21609785746218   11.50632961117826
H         2.06259375578829    2.19052219009371   10.43845472209199
H         4.20473511472390    1.51696192518941   11.78893438989064
H        -2.35007241042924   -0.99916609146200   12.30594668924771
H        -3.58809992432504   -1.17172132222430   10.20297834651905
H        -4.32975718704311    0.86382058395656    9.02040207558293
H        -3.80816695370600    3.08594874066477    9.96526524169046
H        -2.56288680939973    3.26328800008982   12.07621526390536
H        -6.33033441024170    2.41954378704253   16.01685992854381
H        -4.68892294489412    2.97956832307051   16.42766562649431
H        -5.24098635128627    2.98319904053240   14.72383836687890

