91
CSD_code = HEQQIF | q = 0 | S = 0 | Stoichiometry = C27H51AuB9P3 | MND = 3
Au        5.36716978219905    6.96447517227119    3.13450459386413
P         6.19181902707608    9.11907405322489    4.25248515412491
P         3.37507600279922    8.21311110139756    2.80910418048966
P         6.52867535140773    4.95346280579705    3.30589828644308
C         4.74254856011076   10.24335042512147    4.38087729431099
C         3.41247608548946    9.84094283728935    3.64186486420811
C         1.95893057209575    7.23694630803420    3.54489514094629
H         1.01872134217810    7.75262132336731    3.33428506254718
C         2.14395243133847    7.13684952952172    5.05402410299932
H         1.31420241578802    6.58998705129363    5.49998069545604
H         2.17782280182820    8.12712538981196    5.50182538506120
H         3.06606481412371    6.60570205622135    5.28927056108566
C         1.93078294502448    5.83550079824145    2.94087784404016
H         2.90629584831243    5.35504977403146    3.05134722954151
H         1.68059487752876    5.84973446395616    1.88336407115424
H         1.19002457705546    5.22123654556051    3.45177748804888
C         2.86090271656208    8.50215485790663    1.02564127719984
H         3.30177329829128    9.47921230197930    0.79273892808262
C         1.35668484578877    8.58555971604181    0.78517116177296
H         1.17229705257366    8.96790985608778   -0.21831099311103
H         0.88974856322845    9.26277615401822    1.49560765787239
H         0.88244875911273    7.60982564568377    0.86294958222761
C         3.51224063811733    7.47283270879017    0.10333383144430
H         3.11075420167813    6.47539230815342    0.27319377642715
H         4.59079725472015    7.44519659198594    0.26472111286501
H         3.33073755012977    7.73562780949761   -0.93809693611160
C         7.68367120731946   10.19029507556210    3.81067383717745
H         7.26135545432733   10.93735893403062    3.12794390122003
C         8.67123595274006    9.34445019574427    3.00512665236347
H         9.45805860200604    9.97346199125875    2.59071381165790
H         8.15891493776649    8.84828367865933    2.18047185146336
H         9.14013926064536    8.58087676433006    3.62290596427850
C         8.37934437040184   10.92319664775395    4.95250752170197
H         8.94236226774353   10.24287463907908    5.58697679523959
H         7.65983179586991   11.45862051381472    5.56615200181583
H         9.07907275562311   11.64957339653280    4.53961539697599
C         6.55571649081452    8.59218012949857    6.01848341688622
H         6.76495144096808    9.47500752403601    6.62845947977525
C         7.74995597045505    7.64334063776182    6.03498895712230
H         7.85940846245209    7.18742379165072    7.01910743189608
H         8.68101859735955    8.14727653348017    5.79106138463043
H         7.59018170033295    6.84083885723584    5.30963440676731
C         5.34303598097900    7.86390189735635    6.58357546777990
H         5.16673909284922    6.94427926092390    6.02181358094099
H         4.45213038117841    8.48434981291492    6.53320029650381
H         5.51146534306487    7.59129318531350    7.62504816653348
C         8.28824304463726    4.92284808840137    2.80157174803510
H         8.84150168756898    5.67037542646494    3.36985376198064
H         8.32883257365944    5.18910155935865    1.74434280238202
H         8.72188865460034    3.93190838481091    2.94289937985137
C         6.49424180176329    4.26408526922400    4.97989930994951
C         5.22642481057406    4.01260097484378    5.50307538969019
H         4.35668397643186    4.17529273784353    4.87795448848499
C         5.08425564106075    3.56101645468584    6.79947446465808
H         4.09983905322119    3.36874985823456    7.19913365409608
C         6.20791029853649    3.36553638554657    7.58836167161516
H         6.09905830675397    3.01745177612694    8.60439179164818
C         7.46838526954062    3.62247013879340    7.07593916121057
H         8.34285031561696    3.47362728776581    7.69228852542307
C         7.61718008530194    4.07566840105789    5.77671450970612
H         8.60484967804999    4.28336582372874    5.39182675178844
C         5.86347354880176    3.57660156405396    2.32068846107348
C         5.06395843089875    3.87636415480965    1.22463577417654
H         4.84958990345437    4.91304175934905    0.99846170499037
C         4.55045257131094    2.85850301939854    0.44219480594694
H         3.93023927828814    3.09343993290662   -0.41000449053030
C         4.82989589414101    1.53882744560321    0.75755642819565
H         4.42637771384757    0.74244702154547    0.15044004576542
C         5.62319420617918    1.23686636373975    1.85405757046963
H         5.83690403552040    0.20698136959328    2.09938252629630
C         6.14142593711420    2.25051271849140    2.63735679470581
H         6.75448743980455    2.01922701438628    3.49830416691533
B         2.04245062787251   10.45769819461156    4.28298343612424
H         1.03709983373307    9.83718894465601    4.15310949153900
B         2.47946213988610   11.34379266977014    5.70164841167433
H         1.80497674838461   11.57221386684750    6.65115662516300
H         3.32325173314002   10.47676008587150    6.12737454035946
B         4.40765988072554   11.12878028515082    5.71992686436923
H         5.14762511164088   11.11460720489801    6.64662075742307
B         4.41456879918182   11.05309931858183    2.88484519583475
H         5.08647770281778   10.72815118776265    1.96099402203260
B         2.66692503726116   11.25895884814210    2.82383889129331
H         2.13181796647015   11.14552339000658    1.78078016676535
B         2.17125114223760   12.22840916270881    4.17644581471725
H         1.20790620885874   12.90951704482269    4.14450549583395
B         3.60615401944995   12.64954217616214    5.13558682488295
H         3.71668759620323   13.67177326132316    5.71916167371899
B         4.98030810484062   12.00192019566125    4.26142897729727
H         6.07613184646521   12.42646163800984    4.29335153490281
B         3.68326047448446   12.60960632707808    3.30956300884489
H         3.81360849000580   13.56384421528590    2.62838539106673

