85
CSD_code = HEQSUU | q = 1 | S = 0 | Stoichiometry = C45H37NiP2(1+) | MND = 7
Ni        0.42706798878984    2.57050716748388    2.57287320094250
P         0.33979476490985    4.74228764193196    2.75922457764238
P         0.03785762050806    1.85190017614018    4.61023251862330
C         0.82364783243992    2.60966457229992    0.56273589651465
H         1.27857627584748    3.37431820123167   -0.05044410675017
C         1.50101212915050    1.52108028929901    1.14308177528403
H         2.56907133904768    1.36303189671121    1.12849513827218
C         0.53863469464713    0.67988923367426    1.73810550071953
H         0.73985710625816   -0.27832392415286    2.19734454830752
C        -0.77786153242800    1.07846924858062    1.25401426778199
C        -2.02645026083083    0.47556997624267    1.32725550076291
H        -2.15738984190666   -0.46567673202858    1.83961971123656
C        -3.09246633907168    1.09987744160300    0.69717232786638
H        -4.06833373834211    0.64039369704876    0.73043037809467
C        -2.92648504531465    2.29629472973378    0.00777017914280
H        -3.77758234565187    2.74894589681768   -0.47775335114505
C        -1.68461962362405    2.90686165468861   -0.09036886195651
H        -1.55681328146807    3.82375721642314   -0.64745604503059
C        -0.60368625485076    2.29513441460141    0.53074999519418
C         0.12996025036048    5.77757676653401    1.27273707198111
C        -1.10800772441056    6.26312656981351    0.86712096021685
H        -1.99036896377001    6.06726403119317    1.45851778501217
C        -1.20883146720240    7.01060950399274   -0.29407849227247
H        -2.17158432842008    7.38968198872274   -0.60208919529538
C        -0.08394391952327    7.27123270534739   -1.05852082150209
H        -0.16841647200810    7.85187046675502   -1.96402828130037
C         1.15196571338030    6.78570867269901   -0.65902853662086
H         2.03100922968311    6.98920923070746   -1.25163123431513
C         1.25963503577656    6.03810934350275    0.49786041348756
H         2.22351722199492    5.65930916846603    0.81320573600681
C         1.85401546503542    5.43420215037996    3.47730272488605
C         2.05768988707921    6.80276141196657    3.62569372254736
H         1.29734894353853    7.50102228546142    3.30508666383471
C         3.24707353149925    7.25931303851029    4.16498103567131
H         3.40747472494095    8.31973110908287    4.28686315248124
C         4.23627330972378    6.36263204842999    4.54029796180748
H         5.16168091554732    6.72828131885139    4.95781589790015
C         4.04788085288718    5.00048184792518    4.36599762805001
H         4.82565031214394    4.30454229776651    4.64201884800846
C         2.85890777118413    4.53982395960424    3.83188270282120
H         2.68527939320107    3.47556122109591    3.66991472601987
C        -1.07048614609900    5.24549312445278    3.78931551649744
C        -2.27334679470565    4.60906187413483    3.48597454107305
H        -2.28626958728680    3.86748745392579    2.69106924611382
C        -3.42339371401431    4.92389163895210    4.18340535851867
H        -4.35657218840865    4.43681032523920    3.94170015178031
C        -3.37392668050452    5.87006865404660    5.19562586676381
H        -4.26957286425131    6.11842710168416    5.74368847033552
C        -2.17735183463841    6.49310758541817    5.50703990346688
H        -2.14121705070653    7.22466689043672    6.29961446975827
C        -1.02234262664721    6.18593131940291    4.80756839321361
H        -0.09058513099878    6.66701090358682    5.06286065527353
C        -0.37814784286785    3.00829158991306    5.96271259148067
C         0.64287147088220    3.85864415704900    6.38352443162191
H         1.60390799426766    3.81997517522010    5.88996444366179
C         0.43938099259484    4.73180218804971    7.43353589279056
H         1.24080510627610    5.37939249374756    7.75570774984149
C        -0.78911659504682    4.76926119393590    8.07401023857042
H        -0.95013956749167    5.44818994480778    8.89708412881319
C        -1.80559420678097    3.92577019043707    7.66146579923389
H        -2.76060420879483    3.94378957799900    8.16420162891983
C        -1.60547611671700    3.04554061997435    6.61148273044067
H        -2.40302720388340    2.38121060006275    6.31618797147394
C         1.44688586891719    0.99925006149838    5.38980645553074
C         2.61082761614551    0.75910942622451    4.67074973157218
H         2.67311827260344    1.08269236939887    3.63795107568814
C         3.67949335954004    0.11294016739356    5.26731916529497
H         4.58199022191119   -0.07184963047315    4.70436396149668
C         3.58750227189505   -0.29619402436647    6.58687174225508
H         4.41860979774351   -0.80155178379932    7.05400489905015
C         2.42847421151314   -0.05617715464285    7.31036731020382
H         2.35850836815456   -0.37558290300097    8.33892381082666
C         1.36052772962234    0.59182623460779    6.71952966286166
H         0.45692739629127    0.78264335134036    7.28135712781978
C        -1.30090421541500    0.61951479991546    4.64911656385089
C        -1.06912952470081   -0.71866482603258    4.94847859851724
H        -0.07249552618059   -1.05687893953370    5.19316271183403
C        -2.11921836430510   -1.62053828851568    4.93772869486623
H        -1.93455775040240   -2.65729002701343    5.17513387068894
C        -3.40124258851262   -1.19877278820878    4.62500954518251
H        -4.21681202620353   -1.90542430266671    4.62390600354126
C        -3.63262918942881    0.12886077460350    4.30167657178903
H        -4.62776262451283    0.45799670254888    4.04290011870981
C        -2.58578374018325    1.03197692558308    4.29813954566781
H        -2.75536593941983    2.06355531752532    4.02315903217517

