43
CSD_code = HEQVUV | q = 0 | S = 0 | Stoichiometry = C15H20O3S3SiW | MND = 6
C        -1.36267524242103   10.83859699687530   11.38783519158307
H        -2.23871817740570   11.33807735365128   10.97670296541870
H        -0.74356563448249   11.57511513064250   11.89797725312912
C        -0.57816147372954    7.97691463991831   12.28694569222899
H         0.38788332084469    8.38438521014984   11.99074544684046
H        -0.44527249714334    7.37811986825330   13.18810669691243
C        -3.56437365095840    8.71121524788722   11.87669115423920
H        -3.61306045365210    7.62718377684165   11.97190613162365
H        -4.41330943616899    9.14940135931279   12.40205151017775
C        -0.53962097953089   11.61804645585789    8.86045764281310
H        -0.08792796945644   12.49459113434801    9.32033281686534
H        -1.58932641349272   11.79086128602174    8.63759748892121
H        -0.00732724274567   11.35310576810441    7.95145961313921
C         0.44689258873849    6.01901965907237   10.61194240058030
H         0.76594101934781    5.47414035692677   11.49795969171569
H         1.19120406732425    6.75360232606342   10.31612816746074
H         0.26070621877475    5.33064364373610    9.79258763646415
C        -5.08222647284214    7.94884414213155    9.68575012366599
H        -5.97369115365189    8.20409035672652   10.25488811085375
H        -4.76037470473672    6.93276387249042    9.89843783659648
H        -5.26890195829612    8.06218445604418    8.62173267605974
C        -2.02767938096603    9.83790988777339   14.33171219842540
C        -1.66517231342612   11.08588166653057   14.82239235714227
H        -1.28498798204866   11.83510158328272   14.14465085021714
C        -1.78619339485154   11.38641775726913   16.16729070561405
H        -1.49832021358672   12.36252165497165   16.52940849215541
C        -2.27575327120186   10.43739583456970   17.04804093690155
H        -2.37096297329123   10.66967029156614   18.09832178919523
C        -2.64411434031456    9.18859175017486   16.57547373289001
H        -3.02863694318297    8.44412725694396   17.25717138295598
C        -2.51949659292037    8.89608255332665   15.23044635845385
H        -2.80991166060577    7.92090203646563   14.86696411311555
C        -0.04366498410901    7.69878627103557    7.97500243237498
C        -2.11449909189174    9.34438565009087    7.33430036062300
C        -2.60184573803951    6.77403930264638    8.08984210614746
O         0.88565168418626    7.37511748388173    7.38444792581321
O        -2.39280468932543    9.92571120510251    6.38472870826596
O        -3.12019923553071    5.88907500511691    7.57488589541236
Si       -1.87661878458680    9.37471961552311   12.51239601343783
S        -0.37755319466717   10.21078656303225    9.97970955627852
S        -1.12140827154755    6.84380168925113   10.95707838658821
S        -3.76115657569943    9.10676384250625   10.10208240975590
W        -1.65996580670273    8.27740805788490    8.90491704094536

