78
CSD_code = HEQXEJ | q = 0 | S = 0 | Stoichiometry = C31H40MnN2O3P | MND = 6
Mn        9.17132468996251    3.41299553007954    5.32279130860099
P         8.38516271854740    1.54657339527108    6.19358214359432
O         8.25121029588555    2.04388673324293    4.04123376455643
O        10.06832033892504    5.04858943665950    7.57555552231622
O        11.97608540592228    2.58582852528513    5.24618239884358
N         9.07762076619976    5.03463398758418    3.81606051944559
H         8.54317810894598    4.49325300151939    3.12646855600908
N         7.27460107420924    4.00614800623719    5.45160844669949
C         8.14723164050477    5.99841845345857    4.42002392190584
H         7.73638707676987    6.70357835322927    3.68403590783328
H         8.68723588827856    6.56785350791647    5.18558703557647
C         7.00811639737454    5.25537075085809    5.06169186510475
C         5.75463580735028    5.82987714921066    5.20275244234118
H         5.58771181401447    6.84859990454852    4.88834571365581
C         4.73317262032891    5.07447534119940    5.75665830598493
H         3.75138829129060    5.49735585967778    5.90487870393602
C         4.99365048484335    3.75460592087062    6.07823394181743
H         4.21476784240394    3.11498533316013    6.46437806263164
C         6.27374953201781    3.24171936128839    5.89358042103159
C         6.55159136705757    1.79331554188560    6.12771220633801
H         6.17332627400351    1.23381139611557    5.26646083390903
H         6.06132157015850    1.43569127379820    7.03763632251465
C        10.20887656345059    5.64740084742284    3.07920122013129
C        10.88596893028707    4.52850942904397    2.28519447501279
H        11.80498808315600    4.88645409941353    1.82985737741292
H        10.23223892902835    4.16585202610988    1.49319600489215
H        11.12707009487721    3.69806141042194    2.94627410570480
C         9.73749390753488    6.72354945857761    2.08850460310993
H         9.42581155275120    7.63438575131558    2.59375397052887
H         8.91561701170133    6.35848047756363    1.47350980944031
H        10.55981028795953    6.98152465430900    1.42648727957725
C        11.19905856386928    6.24808651660295    4.07641274672470
H        10.78477447897963    7.12108896296030    4.57381207721100
H        12.10658220186164    6.55169040984503    3.56267844048697
H        11.45167500314829    5.50317964350306    4.83126650025352
C         8.68950514092633   -0.16592664079371    5.68253232465475
C         9.97739715095633   -0.51251416823961    5.28741106822837
H        10.75570732572552    0.23797175518913    5.32333371023081
C        10.25499908328318   -1.80175350213944    4.86817189904877
H        11.25527699044608   -2.06223369114396    4.55333206452727
C         9.25213590679294   -2.75658176854656    4.85187943684850
H         9.46498423342252   -3.76164639231284    4.51780267595540
C         7.97585189409260   -2.42456450614574    5.27630701508406
H         7.19639731037202   -3.17368968306120    5.28179123181704
C         7.69255653640584   -1.13551496164278    5.69210394711417
H         6.69562298337418   -0.89058816409309    6.03140742667555
C         8.48146839992886    1.29869282744692    8.03703598324198
C         8.07730102299470    2.36757997153880    8.83339326740531
H         7.71209496884116    3.26967618354694    8.35414980558477
C         8.14726465788796    2.29411884835839   10.21006059417120
H         7.82805541389644    3.13079864005879   10.81517515751404
C         8.63824401013516    1.14717817836787   10.81480767178826
H         8.69818508161715    1.08585257778616   11.89178398281258
C         9.06164624203067    0.08634460723750   10.03412225257749
H         9.45474607701377   -0.80543482112732   10.50165396656563
C         8.98888311116995    0.16204094435316    8.65334861231707
H         9.32846460375480   -0.67111092593467    8.05408250545806
C         8.74408829514555    1.36429598267340    2.94668017029120
H         9.69091732298357    0.84448810345488    3.18013494102718
H         8.96656884945480    2.07035434160058    2.12350109957462
C         7.73552557645101    0.32527352380688    2.43116919759518
H         7.39922845074269   -0.27618054968717    3.27863279125405
H         6.86653317524117    0.84813014971505    2.02357726333584
C         8.36004209926775   -0.58825735069776    1.38308620604441
H         9.29045712874905   -0.99037627581128    1.79365647526672
H         8.62081763566388   -0.00837862394469    0.49551342125335
C         7.46516047430949   -1.76663028778538    0.99748111126110
H         8.03620651578855   -2.44211562239442    0.35501939872029
H         7.20971237045743   -2.31593040494289    1.90769967874422
C         6.17332281618905   -1.38434101774465    0.27327514865316
H         5.57211538667241   -2.28849991677834    0.14667465877099
H         5.59584993052866   -0.69362312607306    0.89007949863291
C         6.41739346573463   -0.76246899696433   -1.09692230006847
H         6.92278113500118    0.19563588262761   -1.00682707995545
H         5.47357796824378   -0.59958741553444   -1.61324830735108
H         7.03327887970734   -1.41952607292914   -1.70762793388220
C         9.69713982339876    4.40901891759240    6.67684069309099
C        10.85723894160566    2.90379300092097    5.21661031298606

