41
CSD_code = HEQXEI | q = 0 | S = 0 | Stoichiometry = C10H24I2N4Zn | MND = 4
I         3.29835559056884    3.18337795774650   10.30687967482528
Zn        5.48489806049008    2.23300816335949    9.50464266182843
N         4.90031583526601    0.64674926257562    7.91368539116826
H         4.99187809946636   -0.28600985711829    8.32446803739367
N         4.02275063436768   -0.25597309730859    5.31870380992008
C         3.50466999829634    0.76151338423458    7.46567644281585
H         3.38105327548426    1.73644020300327    6.98881551660784
H         2.84047751487707    0.70756835817045    8.33042502594950
C         3.14344302772700   -0.33498519425160    6.46788088734651
H         3.20859342192835   -1.32549498412955    6.96461571237263
H         2.11417544610505   -0.19244015590583    6.13423051384400
C         5.39896582467650   -0.43008969729002    5.73742248528067
H         6.04544680950970   -0.35640483765615    4.86118110128822
H         5.56201043704078   -1.42548192320905    6.20098235079105
C         5.77436508328083    0.66472219378554    6.73178456240405
H         6.81236866067391    0.53903626525634    7.04618831425916
H         5.67059634343685    1.63871469256688    6.24873465724585
C         3.64486031783467   -1.17480734151991    4.26949996459747
H         3.70692400459637   -2.22924720043781    4.58321009724594
H         4.30288725863444   -1.02582561012637    3.41521720711152
H         2.62196585298688   -0.96172051812366    3.96400076742012
I         7.67169786677042    3.18343522146941    8.70224509822625
N         6.06976602623085    0.64678683970644   11.09551678579768
H         5.97817669432141   -0.28596745425476   10.68473061877149
N         6.94737824552899   -0.25600444545278   13.69042205549259
C         7.46543305429268    0.76151827458469   11.54346656896698
H         7.58909332834809    1.73642898684861   12.02035234618379
H         8.12959017464585    0.70758045697421   10.67869084942951
C         7.82664294427648   -0.33504062665358   12.54121037953536
H         7.76142684744504   -1.32553531126067   12.04444670931667
H         8.85592924582510   -0.19255959092470   12.87482833504576
C         5.57115005171265   -0.43009007557717   13.27172555772628
H         4.92467995013428   -0.35643580953277   14.14797734241252
H         5.40809101546639   -1.42546380823884   12.80812120055432
C         5.19573856268710    0.66477284041270   12.27742452997774
H         4.15772584786725    0.53912289435045   11.96303467007910
H         5.29954314966010    1.63875211250999   12.76049946027034
C         7.32528081796143   -1.17478113188999   14.73968373315787
H         7.26320550224104   -2.22925030262381   14.42604456705793
H         6.66726887821208   -1.02573580050915   15.59396802113781
H         8.34818029912480   -0.96168333356004   15.04516598914374

