99
CSD_code = HEQYUA | q = 0 | S = 0 | Stoichiometry = C55H34Br4CoN4P | MND = 5
Br        8.25415494034384    9.39006150853853    8.92169161293441
Br       13.93177490485257    9.76925713290728    8.96391440290510
Co       11.38022679967800    4.99376520007123    8.51369039114093
P        13.59239260953490    4.99376053975842    8.36777366787532
N        11.43935936836161    6.20083509226227    9.90370190687953
N        10.90096839093902    6.37055996468541    7.34396232578499
C        11.08220073443695    9.78374323737042    8.95206189223460
C        11.40526043718285    7.55941842200780    9.98125780344987
C        11.58528104215509    5.69971814176920   11.15311409194619
C        10.93235907200717    7.71842928964634    7.59162102372091
C        11.17293936232095    8.31546432298403    8.83578168567905
C        11.65517267379724    6.77176777033076   12.07572463836441
H        11.76167911823737    6.67531709062336   13.13909125675602
C        11.54154494422152    7.93015318750399   11.35042436863079
H        11.54403897374561    8.93707803138474   11.72538480122922
C        12.21427473095582   10.58753893764946    9.03513507374914
C        10.39695610404624    7.50510236869203    5.42080943983455
H        10.12962544360475    7.67044940517516    4.39491882974671
C        10.62454933846576    8.42887147391482    6.39025886837825
H        10.58042709686929    9.49871231539506    6.30094310746757
C        14.45741367735498    3.63905320601238    7.49325932608204
C        15.71650532742853    3.20293420371458    7.89551511963684
H        16.17914191105184    3.61189692094688    8.78102548487164
C        10.12049594565292    4.99375819435245    3.92819610525314
C        10.57133092239602    6.22078111836855    6.02243461936326
C        11.15462817675265    4.99375769298206    2.99935536467416
H        12.17951734962639    4.99376248309524    3.34448078666736
C        14.52452441646832    6.19601860733293   10.70248733470619
H        14.32385036207509    7.13198050679173   10.20209667668269
C        12.13664708879803   11.96417378084732    9.15987476712622
H        13.04061432872697   12.54984974585242    9.22007462564216
C        13.90751739692001    3.13677994671471    6.31973096040565
H        12.95606396959765    3.50881345297243    5.97445980791020
C         9.84785151502317   10.42903960466309    9.00558946200975
C        10.42905632041561    4.99376190255509    5.37779523370295
C        14.31790966311685    4.99374161801605   10.03132696169310
C        15.80694865793293    1.70627469825669    6.01928559722093
H        16.32460735260186    0.94197593773580    5.45942843393841
C         9.74359029256157   11.80442324722525    9.12793661687190
H         8.76916163053020   12.26546649238908    9.16620966549822
C         8.80419501287607    4.99375190408434    3.48377401842380
H         8.00187806947737    4.99375221004569    4.20699938401522
C        10.89366845467951   12.57015810750904    9.20451496258559
H        10.82108598379320   13.64203734687301    9.30112940281233
C        14.57416953654573    2.16843147064838    5.59171408614795
H        14.12692090145647    1.77487014116206    4.69071431614013
C         9.56077356158075    4.99374446446963    1.20671930243891
H         9.34300416175198    4.99373822070305    0.14878536635815
C        16.37977706311596    2.23529024930185    7.16384390857136
H        17.34918462262925    1.89169235566518    7.49201615420428
C        14.98430508884429    6.19300409393082   12.00630589145517
H        15.14812731767213    7.13074291341076   12.51581965900741
C        10.87441750917984    4.99375082568426    1.64454758812952
H        11.68391446766747    4.99374995370875    0.92885233884598
C        15.21925393543708    4.99370886566785   12.65853736642507
H        15.57445895551537    4.99369591853842   13.67843375093026
C         8.52710483519407    4.99374496635991    2.12835672878147
H         7.50108358211139    4.99373968393172    1.79040376919040
Br        8.25415599452418    0.59746790594777    8.92170807493983
Br       13.93177685158656    0.21827255541282    8.96389937837048
N        11.43935695930136    3.78669837665896    9.90370510734157
N        10.90096743669278    3.61696828369326    7.34396581836657
C        11.08220212875512    0.20378774482867    8.95206798736746
C        11.40525716869876    2.42811515274278    9.98126434272488
C        11.58527910871212    4.28781838316109   11.15311595902810
C        10.93235910180706    2.26909964141799    7.59162732805180
C        11.17293881234283    1.67206698082710    8.83578930451680
C        11.65516762115468    3.21577109210894   12.07572948886436
H        11.76167286671541    3.31222457558778   13.13909598952969
C        11.54153904253299    2.05738393394007   11.35043216952647
H        11.54403105646345    1.05046005590286   11.72539517728842
C        12.21427679669957   -0.60000774088465    9.03513282648735
C        10.39695648997411    2.48242156677027    5.42081522659164
H        10.12962675207297    2.31707228240890    4.39492477014507
C        10.62455009704152    1.55865467272437    6.39026666301494
H        10.58042886284560    0.48881362518339    6.30095277851960
C        10.57133069661554    3.76674418829335    6.02243769071660
C        12.13664998338078   -1.97664332553489    9.15986625858485
H        13.04061806958789   -2.56231861103071    9.22005990812819
C         9.84785340219353   -0.44150970632806    9.00559610919435
C         9.74359302789660   -1.81689400375658    9.12793634344646
H         8.76916473413820   -2.27793787524233    9.16620902747268
C        10.89367199437478   -2.58262849699682    9.20450759023062
H        10.82109027391660   -3.65450828431644    9.30111588059088
C        14.45742201159609    6.34847809827682    7.49328378487749
C        15.71651200751553    6.78459046923668    7.89555197601029
H        16.17914206818878    6.37561848542579    8.78106151329251
C        14.52451758947877    3.79144814561856   10.70246000924463
H        14.32383798211958    2.85549895180715   10.20204816638827
C        13.90753386316868    6.85076443725464    6.31975711036712
H        12.95608169638905    6.47873604403345    5.97447672244975
C        15.80697121327503    8.28126683103974    6.01933641370576
H        16.32463580425080    9.04556888918451    5.45948904349731
C        14.57419323515405    7.81911762554885    5.59175311716020
H        14.12695154730747    8.21268816029169    4.69075390127554
C        16.37979078893285    7.75223968461137    7.16389378872787
H        17.34919705581039    8.09583246076347    7.49207536893611
C        14.98429793746484    3.79442982007360   12.00627861755012
H        15.14811441900692    2.85667843812223   12.51577113435106

