54
CSD_code = HEQZAH | q = 1 | S = 0 | Stoichiometry = C23H22CoN4O4(1+) | MND = 6
C         9.59426805310740    3.43147181675176   12.38308713439966
H        10.27651194740868    2.88149759596508   13.01600045881109
C        10.02429585775421    4.49894487406268   11.61719444995165
H        11.05882493575930    4.79826838776891   11.64664768735453
C         9.10355149026579    5.16927089742589   10.82585407102151
H         9.40250369465608    6.00728086701592   10.21641006196968
C         7.78578700551568    4.74331366614698   10.83915260090703
H         7.03537235714638    5.24064277088535   10.24528776281803
C         7.42840194382097    3.67135536503459   11.64457952046466
C         6.00238264994670    3.21273582615952   11.76607491565364
H         5.48993177448456    3.94497025783845   12.39780559873160
H         5.51165777325250    3.20797560412015   10.78559416031846
C         5.77562738957825    0.76139754084581   11.49490303539068
H         5.11661806922080    1.00472535585517   10.65328528139010
H         5.33364148511196   -0.07503148010752   12.04179689092026
C         7.15769801873241    0.36069116139479   10.98217251313077
H         7.09078828402158   -0.56585516491210   10.40011875278376
H         7.54474979718425    1.14577880754182   10.32805112768024
C         8.00395312839124   -1.08595402680505   12.80599003373169
H         9.01114449588690   -1.35296912846805   13.14064436585366
H         7.65021115804364   -1.87406224172960   12.13081803605099
C         7.14428941353320   -1.01518328151714   14.03677369797447
C         6.71450138118701   -2.15803457272023   14.69585049915374
H         6.96188908084721   -3.12998265259260   14.29933505194389
C         5.98641666593658   -2.02962682958973   15.86708863815370
H         5.65186947744583   -2.90353734536165   16.40314445972978
C         5.70471525199645   -0.75502846125083   16.33524000303488
H         5.14771268372839   -0.60368976458422   17.24496728569001
C         6.15677583158080    0.33566228092317   15.61600299527052
H         5.96036712004316    1.34585819170685   15.94644882427201
C         8.08378130515431    3.02532396112347   15.62502091708353
C         9.20889027630415    2.17930235075987   15.46290669672519
C        10.24246928867211    2.21629018298725   16.36928439012287
H        11.09973186858217    1.57325349070296   16.24703210415725
C        10.17614883872477    3.09790146316868   17.45963138976255
C        11.20504120052481    3.20051768949674   18.44672736377553
H        12.07817863581231    2.57097596983766   18.34912516537833
C        11.07910913117540    4.06529319549997   19.47211301286106
H        11.83006473725430    4.17393140160853   20.23734223372741
C         9.90920697364681    4.91507635353895   19.61229693521746
C         9.05623829390233    3.93022588230239   17.61121652848452
C         8.00568985192471    3.89612228333479   16.69424925050511
H         7.15456216225649    4.54272782290372   16.82744814311013
N         8.32517235970748    3.02520978843132   12.39638397153020
N         5.91857893080403    1.89614334792928   12.41717411866250
H         5.10749897404070    1.91440033517227   13.03093675431159
N         8.06950086095288    0.21712252722605   12.12571724251135
H         9.02308975338179    0.33462949335534   11.79119898547127
N         6.86133268213336    0.20961512952933   14.49169882586408
O         7.12598512001132    2.90112254374599   14.70204607874409
O         9.18115276961736    1.38113252303168   14.38122383526628
O         8.94202149344896    4.79188263519963   18.64442834037460
O         9.72073085403460    5.70895791916460   20.49839085259373
Co        7.60476542234542    1.62695539214703   13.46618694920445

