55
CSD_code = HEQZUB | q = 0 | S = 0 | Stoichiometry = C18H31ClNiP2S2 | MND = 4
C         1.73006094990330    9.13712865459994    4.42974919372195
C         1.56408732665942    8.06311925994292    5.32222423163078
C         0.87933332770769    8.17677589252776    6.52515487990313
H         0.79540013735977    7.31053527799577    7.16324926461708
C         0.32209456926229    9.38489911568853    6.89243751990119
H        -0.21137659462468    9.47881003261220    7.82571268651015
C         0.45599375579766   10.47172628941538    6.05221025309708
H         0.02784463325135   11.42809250024207    6.31029340103068
C         1.14456791891851   10.34368351803502    4.85288581164899
C         3.19456919874661    5.59306828949140    2.17334407580662
H         3.89305019093273    5.79461472547417    1.35338900269918
C         3.53396718253419    4.26905438559927    2.84516356316811
H         2.88024765766965    4.09645089057486    3.69907571730833
H         4.56577458648708    4.24854241857660    3.18888513189718
H         3.39461039166759    3.45254742663732    2.13850562460934
C         1.77199433115220    5.60437043812283    1.62044199669322
H         1.64457586961021    4.83055483696968    0.86633458803948
H         1.56127912185005    6.57136904973555    1.15941906661696
H         1.05002417068111    5.43371514054390    2.41894187367908
C         5.08913409044141    7.01320265354379    3.97987358898136
H         5.20169461548436    6.13007492485661    4.62128969232977
C         6.11437458136747    6.98555794475898    2.85327810913564
H         5.93178823422121    7.79979956588312    2.15428029623465
H         6.07785781976140    6.04692447107989    2.30499796499111
H         7.11665540349049    7.10150382116104    3.26292789443507
C         5.22706394529355    8.28098552977499    4.82175979057984
H         6.24731914942050    8.40569988962501    5.17909960860165
H         4.56109888907116    8.25131344522122    5.68418789433485
H         4.96232044365004    9.15651921430649    4.21510892688103
C         3.20130881879714   12.15867813022080    1.51205465549852
H         3.52178019665797   11.77533839978940    0.53677675067873
C         4.40763839126144   12.19252935956352    2.44643684840927
H         5.17987374524895   12.85252837753517    2.05673932720429
H         4.82936060626097   11.19026483340875    2.54401187540971
H         4.11520100420842   12.54560204475937    3.43520763314504
C         2.56281859419731   13.53276134469396    1.35707836229590
H         2.19105900329822   13.88992136289748    2.31658811040239
H         1.73561329934151   13.51153228333630    0.65092436336208
H         3.30341154869239   14.24283894490306    0.99243016915839
C         0.56694615562361   10.86160752810979    1.02180988238718
H         0.03312007919591   11.81605034336511    1.11296391106483
C         1.00132530245701   10.63164910577528   -0.42030443583452
H         1.62934348445873    9.74526724850195   -0.49096749908195
H         1.56001222152818   11.48078954602800   -0.80765777889103
H         0.12558022072388   10.48436630294080   -1.05068189504010
C        -0.32522140047385    9.72465729934030    1.51848469787751
H        -1.16501668800175    9.56230283513410    0.84558912819236
H        -0.71660174771251    9.94171871367897    2.51248245006226
H         0.25836060990386    8.79669339474882    1.57543477881122
Cl        3.72452485434479    8.78334292480067    0.92878015037817
Ni        2.68363700820600    8.96904803031135    2.76190069976025
P         3.34426717793225    7.03488921440044    3.32743380215634
P         2.02186692041969   10.89850056836009    2.18527316330582
S         2.23296316876401    6.44020371787538    4.98828534491594
S         1.22762152690161   11.83407854244787    3.87090385527899

