44
CSD_code = HERFIT | q = 0 | S = 0 | Stoichiometry = C15H25NNiS2 | MND = 7
C         1.52022554514384    0.41284271891096    1.26821727017038
C         2.32673225963682    0.98870822301213    0.24669431346028
C         2.16992934853258    2.45016635255817    0.28820487967607
C         1.40338191529971    2.75694203873062    1.40449986812617
C         1.06274949416432    1.49001465176647    2.07277719317902
C         1.13332365506724   -1.03075872538160    1.39472431812175
C         2.91784828216317    0.26355656836222   -0.92071542492779
C         2.61788861734262    3.36557383638678   -0.80798869327979
C         0.82718418812148    4.08137769192363    1.79644866217232
C         0.07520314708125    1.39934506887414    3.19293163075413
Ni        3.13101018370633    1.57596824582100    2.05597533370104
S         3.74636809799038    2.03012296656453    4.13503955790634
S         5.32880029919309    1.38105416618378    1.84626498690397
C         5.30750150751191    1.78850186629745    3.49951659986620
N         6.41443987060211    1.90943644206780    4.23080196179770
C         6.34237460056999    2.26856839542218    5.63157279005162
C         6.19566419693269    1.03513593281377    6.51840000222261
C         7.71851062587461    1.67440469165307    3.64722371150363
C         8.29721372517900    2.94726237548336    3.03543201697731
H         0.23355942083305   -1.22004966775882    0.80544312049943
H         1.92243091080606   -1.68403637671881    1.02923276415532
H         0.92381513874032   -1.29327081219009    2.42918339879421
H         2.20853955971993    0.28437343844894   -1.75070105429593
H         3.84039975110696    0.73687054818475   -1.25028604882700
H         3.12931781253995   -0.77396216035254   -0.67396969001630
H         1.94957919296964    3.26400998859893   -1.66532039222790
H         2.60327092700226    4.40237543104065   -0.48125950358368
H         3.62631398783362    3.12100424434523   -1.13545714641463
H        -0.21764962979890    4.13236023567421    1.48385936369303
H         0.86384177619236    4.22083727960989    2.87492328590635
H         1.36791852489052    4.89786471540675    1.32437307713489
H        -0.93017795572603    1.55822117804590    2.79758156797833
H         0.10839003427315    0.42247301494983    3.66899427168139
H         0.26739012222858    2.15938451371435    3.94744086614998
H         5.47955042995783    2.92436240138881    5.77366248069216
H         7.25026581396956    2.81931966431551    5.88736878711023
H         6.14576445047484    1.33355723848158    7.56129718657861
H         5.28214292618433    0.50522155500778    6.26346225784539
H         7.03918697494812    0.36152986974322    6.38659827288174
H         7.61487391188634    0.91167435617876    2.87108280123560
H         8.37654832467447    1.29316514890855    4.43112415506845
H         9.27261635677466    2.74015081573200    2.60524154548811
H         7.63969075204591    3.30988075998887    2.25015263188071
H         8.40407092537828    3.72425911179654    3.78885102220212

