59
CSD_code = HERGAM | q = 0 | S = 0 | Stoichiometry = C16H28N6NiO8 | MND = 6
Ni       -0.00003661742558    0.00001393956627    0.00000064067857
O        -2.19944178693859   -0.33145837280156    0.62231302099204
O         0.38026620228877   -1.39603628689126    1.12954999606756
O         0.22466327240010   -3.59719857139071    1.27060483055573
O         2.33197701471848   -2.72796259444248   -3.65809160214077
N        -2.20067497231731   -2.36541835470901   -0.35793546094414
N        -0.21108256384112   -1.48963417938853   -1.46879694322609
N         0.20201805171131   -2.00166430647249   -3.82041270106516
C        -2.86594213072046   -2.22220856345053    1.95205438272249
C        -2.39237454039300   -1.53520836255128    0.70398184410934
C         0.38174782005887   -2.57169782702335    0.63067461856895
C         0.57228908448817   -2.60173197262525   -0.90402527793922
C        -1.63129194821842   -1.87739354630728   -1.58632492751476
C         0.30714753886286   -1.02507291894001   -2.76073595287033
C         1.26018343750441   -2.76683037800866   -4.21307864685847
C         0.95109355609920   -3.65536322903171   -5.39842443429400
H        -2.11487622231368   -3.35133566685983   -0.16015351223446
H        -0.64227224139285   -2.02765017306555   -4.36879062616482
H        -3.67006249099301   -2.91990094200566    1.73404347672472
H        -2.02447113563422   -2.77724341526827    2.36759616333693
H        -3.19784973706926   -1.48389111687551    2.67555517703298
H         1.63141534828096   -2.42467334873317   -1.10264684740227
H         0.28534982699250   -3.56998592857228   -1.33316664194876
H        -2.19101262159732   -0.98585355615096   -1.89267959247546
H        -1.74304732355536   -2.67592064375493   -2.33452111626875
H         1.36898929098671   -0.80155257462676   -2.62026261980724
H        -0.22873607919920   -0.11310289326033   -3.03621615527401
H         0.08632656122046   -4.28154118114644   -5.19093516910258
H         1.81025758721805   -4.28588306475179   -5.60601045876654
H         0.73917565665012   -3.04372593286647   -6.27282525700967
O         2.19935390401437    0.33152191017758   -0.62238257694768
O        -0.38036867973906    1.39601263390627   -1.12948937142355
N         0.21108228160125    1.48965514021777    1.46879568043824
C         2.39232377342635    1.53526674218480   -0.70403644623761
C        -0.38190186120706    2.57168872886014   -0.63064864136725
C        -0.57230330108718    2.60176302860476    0.90406875306229
C         1.63129335056616    1.87740149590878    1.58628662743685
C        -0.30710413970108    1.02504190920505    2.76073302670861
N         2.20063942683962    2.36546296170124    0.35789307848300
C         2.86588551330107    2.22227373331837   -1.95210937405633
O        -0.22499335192709    3.59717897878062   -1.27063427992498
H        -1.63141961462859    2.42475854701668    1.10279795856658
H        -0.28528521825837    3.57002171584850    1.33314741991676
H         2.19102334689368    0.98584570865136    1.89257659066919
H         1.74309306107970    2.67589696345333    2.33451193420734
N        -0.20195503168772    2.00159093246545    3.82044892538919
H        -1.36894671521382    0.80150524945686    2.62028280510596
H         0.22880746693580    0.11307341793442    3.03616293937036
H         2.11488063250708    3.35138915609500    0.16015190588923
H         3.67002377060554    2.91994669070907   -1.73408262167621
H         2.02441987856286    2.77733206158493   -2.36764878941914
H         3.19778030048246    1.48394931838638   -2.67562415629736
C        -1.26010337027558    2.76677055701092    4.21313219359774
H         0.64234342352301    2.02754669151684    4.36881730437186
O        -2.33190693712777    2.72793417030659    3.65814608089384
C        -0.95098246915719    3.65530637521392    5.39846872457775
H        -0.08621441512375    4.28147187094199    5.19096447933887
H        -1.81013215324795    4.28584140910041    5.60605759116801
H        -0.73906070982785    3.04367786384718    6.27287203067659

