27
CSD_code = HERGUG | q = 0 | S = 0 | Stoichiometry = C6H12ClCoN2O5 | MND = 6
Co        4.96214381269952    4.91511345632202    4.26998254452329
Cl        3.01847877642219    5.81912805422048    4.38112224204441
O         5.03518078921545    5.62673697298828    2.33606995614867
O         4.32505620590113    3.26899222524251    3.63647817349980
O         4.99442789988255    1.39922039211392    2.64794492557507
O         5.85873935500883    6.44885157076456    4.84374405971970
O         7.89375074737114    7.24981024682826    5.20835023759035
N         6.72003397481984    4.03261417464615    4.22831314687468
N         4.82298023949863    4.33419710021354    6.09189162328460
C         6.64257694233537    3.10931436755954    3.09566291766807
C         5.20007624087253    2.49749564954824    3.10383996872201
C         7.70114738118089    5.11140394204965    4.11435401622606
C         7.13815929006348    6.40310147371767    4.79556615132974
C         6.87741704896730    3.27056677096428    5.48048388114060
C         6.16053771680283    4.01043940181842    6.60590105779577
H         6.76037716234763    3.65268682685370    2.15632561324915
H         7.39660804906824    2.31817807658745    3.14454059614023
H         4.91834060094866    6.58626133821443    2.43152200604189
H         4.21371973154765    5.30425714782965    1.93038596127343
H         4.21298242816857    3.51158689004585    6.11056839743575
H         4.37139717812157    5.06109715964978    6.65257280762519
H         7.85518207631522    5.36387508184580    3.06313729639941
H         8.66792662691995    4.85055729790239    4.55421596213195
H         6.40631578658161    2.29290966705275    5.34503297763742
H         7.93699444015755    3.11944727991283    5.71387887429317
H         6.11104803431044    3.39465583167958    7.51014585897130
H         6.68090146447127    4.94180160342832    6.84236874665832

