55
CSD_code = HERKAQ | q = 0 | S = 0 | Stoichiometry = C26H25IOPRh | MND = 8
Rh        3.97532024647533    3.21622202549984    1.59223163271192
I         1.66010242986835    3.44657046304052    2.81823230535074
P         3.21292116017667    3.18002886409899   -0.51431656160795
C         3.89645761783489    1.24438371369209    1.48799030553530
O         4.12689407102249    0.67438674399057    0.45563624467311
C         3.67392163282325    0.54756173753626    2.80183369175119
C         5.99130808323984    3.75983313951301    0.98093142999221
C         5.47617635193308    5.03135334885916    1.43850146331143
C         5.18571694596438    4.94559155620447    2.79011746674420
C         5.67980815414561    3.67385015610948    3.28184928656355
C         6.26860285999686    2.97822888406294    2.17022103443354
C         5.78930356742783    3.15315543709312    4.57580280556501
C         6.47072143195082    1.96911850946944    4.75326569094633
C         7.05216103678929    1.29460210010482    3.67288019263798
C         6.95419789343839    1.77638046595196    2.38682902669630
C         6.62130050566078    3.53643565547425   -0.36319194832977
C         5.71811477168497    3.87081596551956   -1.55716844968763
C         4.56406306254752    2.88280104153160   -1.72732926324300
C         1.88048327485662    2.05544578444890   -1.01826736739305
C         0.58181938740490    2.41589758426053   -0.66355183676960
C        -0.48154719810809    1.59870578216774   -0.99494001286884
C        -0.25810898568267    0.41674762726036   -1.68275763117631
C         1.03137137231390    0.05448931958678   -2.03483361021612
C         2.10192623258281    0.86580435103970   -1.70251706947267
C         2.53705831738626    4.77699567605207   -1.08192635877547
C         2.45888243480581    5.85867130973792   -0.21488896613362
C         1.95014427813380    7.06902476626694   -0.65264447503336
C         1.51503782740216    7.20295420816026   -1.95964609408007
C         1.57575099699449    6.12154301883830   -2.82557648809677
C         2.08009727874955    4.91139228701766   -2.39011088874936
H         2.59848127664276    0.40686494161412    2.92091099800490
H         4.15850992743537   -0.42827966223704    2.77566179244157
H         4.03581044846938    1.12196412829253    3.65481462560890
H         5.35966418253802    5.90818689149547    0.81771289063188
H         4.79842625282833    5.73513780351471    3.41659600592756
H         5.34971520549076    3.67651384881101    5.41304910225610
H         6.57286265527336    1.55601824960024    5.74582941816912
H         7.59521917147188    0.37970951544158    3.85838181945106
H         7.41486791637187    1.24984433684851    1.56299629494026
H         6.94007444536282    2.49401227820226   -0.44289540617505
H         7.51902466125467    4.16347138368836   -0.42293734500919
H         6.33183186321917    3.84820087185300   -2.46173084991615
H         5.32233135880925    4.88635735344711   -1.45499408330082
H         4.92364938361148    1.86112476379958   -1.58862604944350
H         4.13241898105579    2.97423865365046   -2.72830513227704
H         0.41059825544858    3.33511076070566   -0.12117203737304
H        -1.48351171339791    1.88235268385194   -0.71063523624699
H        -1.08814483059901   -0.22448710098011   -1.94006504940708
H         1.20705739641643   -0.86902906674862   -2.56706684434581
H         3.10405316747136    0.56331965690781   -1.96200683394904
H         2.78110259206010    5.74700028015865    0.81374023600416
H         1.88773105200805    7.90443509586643    0.02876709455015
H         1.11837646043921    8.14654843145664   -2.30361360118688
H         1.22316041030134    6.22223726183848   -3.84163848184795
H         2.10608244037717    4.06195511655667   -3.05962888279800

