94
CSD_code = HERQED | q = 0 | S = 0 | Stoichiometry = C47H41N2O2PPd | MND = 4
Pd        1.88591709814464    3.69861936118891   -3.96031083030000
C         0.12989165704425    3.42914355276136   -5.17229159010748
N        -1.03025367988769    2.84953519661622   -4.82747609179361
C        -1.97175309529672    3.03823377895477   -5.80287552224602
C        -1.37567102536602    3.75938620393075   -6.78167924731263
N        -0.08732917232414    3.98155898632095   -6.37884682350458
C         0.93430650446934    4.67632304330495   -7.13146735970319
H         0.61975557671048    4.72510318332022   -8.17712886479538
H         1.85846811342940    4.08912583539335   -7.05645157124280
C         1.15547894407058    6.06188857129721   -6.57575993311335
C         0.31519269062322    7.10446530278918   -6.94781840441420
H        -0.48175835790508    6.92359994482188   -7.65567572800193
C         0.49443170792629    8.37023983933523   -6.42457809165060
H        -0.16328501201664    9.17319135071166   -6.72553123467038
C         1.52082467865132    8.62866112109822   -5.52255694298166
C         2.35274693194704    7.58298708795436   -5.14549104613431
H         3.15701246662850    7.76805809379291   -4.44897566207156
C         2.17001230245835    6.30732101499300   -5.65613183025680
H         2.85729645937540    5.50547139935273   -5.36472773984110
C         1.72587737192384   10.01539914304120   -4.99704749520132
H         2.52188111089531   10.03627898866188   -4.25812074785670
H         0.81145039040136   10.38667232231623   -4.53713085834673
H         1.98630395568817   10.69069779371768   -5.81174780737168
C        -1.19575244778017    2.02026995402099   -3.66081568317466
H        -1.94568710982710    2.45974025535874   -2.99310947387414
H        -0.21414066713835    2.01765758897246   -3.15368262870276
C        -1.57763909497665    0.61496636803589   -4.04669354518678
C        -0.87690957223146   -0.03969129593817   -5.05409842379084
H        -0.04878834518942    0.45242734078487   -5.54519030275884
C        -1.22399498183757   -1.32585526072313   -5.41682440058774
H        -0.67047981031542   -1.82554311260020   -6.19857604230070
C        -2.27092889172458   -1.99095200915810   -4.78656781622859
C        -2.96278124222597   -1.33187242211083   -3.78067658804830
H        -3.77886460583834   -1.83017127536647   -3.27669733307221
C        -2.62324914720104   -0.04030376525471   -3.41596048836275
H        -3.17471085346843    0.45925410636749   -2.63118844357917
C        -2.63242688803788   -3.38643055864196   -5.19499287271302
H        -3.44698028138519   -3.77353164057124   -4.58788555219762
H        -1.77303269077664   -4.04694192717687   -5.08816147850682
H        -2.93759652713002   -3.40753031652007   -6.24072783379183
C         4.04431050315450    3.43652913314565   -3.81604216667014
C         3.55383718043785    2.73963108183385   -4.92176550407150
C         2.71418508029648    1.55719595849489   -4.79470932727087
C         2.52213471651582    1.05012739270238   -3.40186002872996
C         1.90198771857323   -0.18434298668474   -3.20372210249800
H         1.52378129528765   -0.71082764162846   -4.06717133794933
C         1.78942730642583   -0.72304930338698   -1.93768168143237
H         1.29688188087690   -1.67520892545585   -1.80142571069082
C         2.32709482473717   -0.05349651247868   -0.84611351455669
H         2.25997350968239   -0.48716048240711    0.14139374748581
C         2.96103046280301    1.15960682131213   -1.02468518946136
H         3.40358883447777    1.69282871150291   -0.19557609749707
C         3.05332059590313    1.73404751849852   -2.29199741515168
C         3.79755860786739    3.01542131975993   -2.44776694691333
O         2.26592020161179    0.94621116817345   -5.77065278979216
O         4.25452269713484    3.61664393035702   -1.46867411766954
P         1.08298704347971    4.99058057484078   -2.19710717882069
C        -0.68687600391915    5.36628407618938   -2.42627530765958
C        -1.02981479128542    5.95002814799231   -3.64474986498081
H        -0.23930273377913    6.21332066231806   -4.33574600848821
C        -2.35132480166117    6.18994547539748   -3.96262489732960
H        -2.60428504432284    6.64401280528277   -4.90983920871060
C        -3.35100436771408    5.84010207689386   -3.06707636733110
H        -4.38715740463073    6.01615210941988   -3.31607069981841
C        -3.01759545426773    5.26641106622704   -1.85207262873926
H        -3.79482395879770    4.99927726675756   -1.15031260150088
C        -1.69142565193854    5.02934642647572   -1.52838206132308
H        -1.43982416244900    4.58002816143036   -0.57802535453846
C         1.13419499135253    4.31638255689375   -0.50471920312594
C         1.61654224144695    5.02489582742977    0.58963458983584
H         1.99692204311683    6.02747576397637    0.46340510939854
C         1.61726427650320    4.44220420159135    1.84437336836122
H         2.00110819748517    4.99577695456030    2.68907198874479
C         1.13010591314146    3.15808487449747    2.02229645125447
H         1.13147657669435    2.71005076613015    3.00520172243823
C         0.65075103513626    2.44586430525216    0.93516989367191
H         0.27793405527293    1.44009691093854    1.06369385909850
C         0.66486370673218    3.01747970594974   -0.32269025324057
H         0.31447108590739    2.45370179450759   -1.17896367434707
C         1.82394004302144    6.63607649970457   -1.96323534520153
C         3.21190529432705    6.67674694465641   -1.83057775557682
H         3.77742753012027    5.75335254054953   -1.86222283100263
C         3.85288924139012    7.88353867607703   -1.62197755814353
H         4.92738731930590    7.91069067711931   -1.51321441104729
C         3.11706206757336    9.05650148561976   -1.54745467656197
H         3.61738374299874    9.99995076802080   -1.38141498346419
C         1.73899143967538    9.01791720594271   -1.68038354981980
H         1.16454770605000    9.93084136276246   -1.61458539564808
C         1.08979469295604    7.81356322289627   -1.88992592430509
H         0.01399920571540    7.78992748132892   -1.99005909895092
H        -2.96321433158036    2.64235847916428   -5.72643228018768
H        -1.75720698085133    4.11199246556379   -7.71803087474865
H         4.76962548273368    4.24084363600756   -3.95088877248427
H         3.90339087878329    2.97828571474169   -5.92656770302055

