33
CSD_code = HERREB | q = 0 | S = 0 | Stoichiometry = C10H11IN2O8Ru | MND = 6
Ru        2.11107098861809    7.15711058767187    3.50976842155444
I         1.76413615393633    9.74367671059264    2.16880631684169
O         0.69345978659442    7.17239976211818    4.23704523604113
O         3.55853643318872    6.86489488881197    2.90876108773717
O         2.45506978027899    9.06179841369917    3.81066842692796
O         1.40598446698509    7.90931911430097    1.81237339367508
O         0.06900698247671    9.94234881116838    3.08793074759040
O         3.56285810557544    9.57376811439394    1.46451499456163
O         2.27368722970112   11.48082192154457    2.86921143234330
O         1.13090834376118   10.41588194796053    0.65089466732082
N         1.82087104060834    4.99705931222583    3.20727652327926
C         1.46721594091577    4.48256562609702    2.04449675227677
C         1.59418618494208    3.12672383136764    1.77232289585392
C         2.11993600306733    2.30360916335594    2.75508795437422
C         2.48727804037210    2.85324002617638    3.97356914926631
C         2.31903742180507    4.22174907883291    4.17811746796421
C         2.68117851519766    4.90729223552375    5.43469301383875
C         2.86644967966928    4.24032812190866    6.64479876031238
C         3.20671855609566    4.96851094032105    7.77376113626625
C         3.35488985224961    6.34240401686834    7.67227655843165
C         3.14130372521683    6.93972981458112    6.43752077521120
N         2.81609807481966    6.23831692582684    5.36714804329891
H        -0.50317129302750   10.13003346594626    2.34791047179304
H         3.39750516714343    9.73336918999371    0.53820337078835
H         2.63182360383162   11.13405527533751    3.68455925015585
H         1.07665353056429    5.18651651566092    1.31965934971379
H         1.29646173056200    2.73395682871811    0.81370452175299
H         2.24889758862394    1.24656671283561    2.57721299832164
H         2.91674221706647    2.23033816730075    4.74141403389309
H         2.72829142205473    3.17324347813364    6.70974266003146
H         3.34952532426631    4.46736996803719    8.71926880303635
H         3.62170981935057    6.94138311441873    8.52776062824700
H         3.22897958348833    8.00911791826838    6.29012015729793

