31
CSD_code = HERRIF | q = 0 | S = 0 | Stoichiometry = C9H13N5NiO3 | MND = 4
Ni        1.45872728954087    3.95310696375961    4.64451821832443
O         1.99360518894667    2.92967831332214    1.06169460557052
O         0.49420143426136    5.39573090658023    1.12771026563710
O        -1.06581551902298    6.67389103023868    5.94160274161263
N         2.58069197717909    2.40016542615430    4.45217786266453
N         1.63673942736664    4.45143422219738    2.84548923990145
N         0.26353794084559    5.32398510471375    4.67572263780385
N         0.98524733319204    3.80248775026974    6.59518212789525
C         2.46510996458943    1.22075536490304    5.02978751164922
N         3.24960455278147    0.31393755245920    4.42297828025420
C         3.89436185267500    0.94828346758418    3.40017011308711
C         3.47536216664994    2.24734106715000    3.42502894648054
C         3.83005340005632    3.37831567270147    2.53050197780831
C         2.56659704634017    3.93583233729222    1.85808593156888
C         0.65910667387795    5.23152623360469    2.32936786034927
C        -0.17731408808114    5.88831617707566    3.41674086427987
C        -0.22870502972123    5.79425569639293    5.82122802962881
C         0.40996927535293    5.08738762315056    7.03849412953815
H         1.23869065378626    3.34727723326768    0.62091787256136
H         0.23436740124646    3.10762899281964    6.59149966530959
H         1.69369017402857    3.48516809819745    7.25574221783853
H         1.84155045316241    0.98208856389990    5.87052805412117
H         3.33163366244964   -0.66194897028269    4.65840192494246
H         4.57618552069997    0.44583325221979    2.74770007604652
H         4.52183367821381    3.03979745344857    1.76153109923849
H         4.28208064513065    4.18616711059211    3.11063274755336
H         2.86563489348345    4.78481790361333    1.21439688072412
H        -0.02157104328013    6.97401555323763    3.39200380069002
H        -1.24329496350718    5.69823000944462    3.24421642469506
H         1.20700811356294    5.73399873879440    7.41268654121507
H        -0.33639007580630    4.96029515119678    7.83006135100984

