70
CSD_code = HERSON | q = 0 | S = 0 | Stoichiometry = C29H28BN9O2Zn | MND = 4
Zn        4.97151545171310    4.19646781398220    3.45672061039524
O         6.24845236753151    3.99164509571234    4.93318161523583
O         6.30355441519928    5.79872704973714    3.73334098923870
N         3.80030550122703    2.53894675439751    3.34183173035827
N         5.21639889272236    4.08120993080772    1.49045320270595
N         3.32753695407862    5.30669678278355    3.47129238647882
N         2.80343277481958    2.67925720203677    2.45366199186942
N         4.07628432896161    4.05249368102650    0.79093404025677
N         2.53682017238539    5.13990047643826    2.40552269244565
N         6.13124145027743    0.10685543035741    7.15730023731752
N        10.18298580736735    4.67971252008037    2.10451040177933
N         5.14457050933087    7.74142550669491    7.48050205111961
B         2.72902198113116    3.89441093208164    1.51644479052662
H         1.84627603189446    3.78246297898364    0.74454491678395
C         0.68781326212338    1.52249672634895    1.77976249268315
H         0.01781955100940    2.36807058444225    1.92529664774730
H         0.17118878397558    0.61151863837341    2.06907101498126
H         0.93802605247336    1.46630466115657    0.72234359032036
C         1.91466843184670    1.67866263350125    2.60324659233690
C         2.35669003517695    0.87177116931495    3.63490688707152
H         1.89492955087962   -0.02051893866204    4.00511247803048
C         3.55386594831260    1.45129064516731    4.06957187885442
C         4.44463209297920    0.99226354342521    5.12763377849528
C         5.82839497758001    1.03570765812841    4.98109039609258
H         6.26901709888506    1.39990268320967    4.06791602943079
C         6.61821723778244    0.58904633311578    6.02653128271431
H         7.69780085752066    0.61262216372600    5.95693529253343
C         4.81683822888976    0.05249908051900    7.29105446506676
H         4.46001187975901   -0.35098902873106    8.23023130195094
C         3.93026511296897    0.47669781954942    6.31645965086199
H         2.86413786555150    0.42544687382063    6.47774309549106
C         3.29780532476719    4.28631021941104   -1.57426725953154
H         2.58140372487525    5.08603031334380   -1.39641196577797
H         2.75287775647496    3.34460644204253   -1.59664675232831
H         3.76851080143388    4.44498810881075   -2.54048486566295
C         4.33679066844074    4.26545842107958   -0.51241718473060
C         5.70171754174615    4.44958669404805   -0.64578445708693
H         6.24648484532894    4.62743625240400   -1.55031221299917
C         6.21864171854276    4.32341608813894    0.64785512783494
C         7.59092915557368    4.42563149691032    1.12188101604271
C         8.48251448769364    5.34136348853921    0.56719293346533
H         8.17514954349612    5.98768057890315   -0.24020070817690
C         9.75828563735595    5.42490449597858    1.09801423540882
H        10.48002316553185    6.12897004641593    0.70407855647057
C         9.34160049075351    3.79883645510345    2.62021140737394
H         9.72916427547090    3.20653699498276    3.43909675621205
C         8.04575659789942    3.62411400411578    2.16724452235240
H         7.39993185288873    2.88030252787340    2.60867497320269
C         0.66935784747979    6.30870421809520    1.22727170218489
H         1.15060575514119    6.43081114353214    0.25814312257459
H         0.04631096403613    7.17778630505079    1.41915900748547
H         0.03953638038588    5.42283627238612    1.18187659997436
C         1.68753425635483    6.17784997161305    2.30130533025142
C         1.95786493007563    7.05041028748823    3.34159862258333
H         1.45721737376859    7.97100222406452    3.56186401645821
C         3.00243807247812    6.45708666327811    4.05793203612951
C         3.70500580046030    6.90736428471326    5.25030293193180
C         4.14247396393449    5.99113883860364    6.20590401566449
H         3.92590292500204    4.93791996203538    6.10309304567863
C         4.86052831610955    6.46318726171273    7.29116877009695
H         5.23232885359082    5.78450410189483    8.04765990325824
C         4.70866296536959    8.61177139039567    6.58508942665312
H         4.96025592955714    9.64624474050886    6.78123228093171
C         3.98745559437984    8.25564112874643    5.45869684378636
H         3.67392814849556    8.99968907705415    4.74304199891960
C         6.75179882959570    5.11751637769162    4.67294732130850
C         7.89998579481143    5.62100388067386    5.51018584235391
H         7.59757633407052    6.53774271130329    6.01141702539033
H         8.74222323228731    5.84759020141996    4.86059891286160
H         8.17930653799174    4.87182092810332    6.24393859025803

