112
CSD_code = HERTEE | q = 1 | S = 0 | Stoichiometry = C36H58BN12O4Zn(1+) | MND = 5
Zn        4.69567190468921    4.26051229817725    4.64967969397327
B         7.32320647864118    3.01046690880241    3.37438372179218
H         8.30507205082590    2.55486260299103    2.91457491804327
O         3.66134617197277    2.87096962978913    6.87701672649972
O         4.31362541840251    6.98428024449894    4.21150606343776
O         2.31239564447694    3.74498208122992    3.24640225700338
O         5.70350710737841    5.29755018338648    6.51935856560079
N         7.05659035789279    2.49376319756412    4.79866265836301
N         5.90782361740477    2.79514223223779    5.38612717863057
N         4.78114274552251    2.08325158806057    8.69394896050103
H         5.66135026646870    1.70887369511353    9.00941934718495
N         7.38088081102207    4.54506043032703    3.45845707517853
N         6.29084750634611    5.20567457413021    3.81862885902026
N         5.80988769514930    8.68480640026768    4.42012218926228
H         6.78392237519548    8.92890364652056    4.34231476815559
N         6.07716214989765    2.66014238958482    2.53946394625208
N         4.88141376318445    3.09703554408979    2.91294147610537
N         1.69002078904270    2.58929438347924    1.39054435845879
H         2.02826235396479    2.02057452077717    0.63099197008292
N         1.90164098960151    5.19763114203761    5.40228744608152
H         1.54626545145346    4.73668772250239    4.56987780899034
N         3.19006552620043    5.11587228313563    5.63335971638898
N         5.07361907568331    6.45500189018092    8.36107313675371
H         4.29320955476278    6.85726962086579    8.85503751197809
C         9.15961288241581    1.22671696941831    5.26679041116622
H         9.11183102854233    0.60223600198594    4.37705382221346
H         9.55592184351339    0.63698140856477    6.08831721205139
H         9.84181939454743    2.04990337962016    5.06404913858250
C         7.81146615540627    1.73863500592889    5.62082908898651
C         7.09836146873500    1.55663635522041    6.79405292160824
H         7.41299614727435    0.99137238252428    7.64805264596779
C         5.89612707936771    2.24585576624857    6.59421055983026
C         4.67654898306108    2.42654011664653    7.39830562282037
C         3.69354815048811    2.11502956695360    9.67550594761897
C         4.27027039654325    1.63737813616402   11.00658869157300
H         4.64198820549651    0.61858796482589   10.92062915646090
H         3.50003274126442    1.65309504881295   11.77223989859952
H         5.08546580425499    2.28256829729758   11.32874685512043
C         3.17037143384675    3.54823553352934    9.80544619338803
H         2.79520308627441    3.88981963956904    8.84523056801238
H         3.96712151359714    4.21456497009970   10.12870753169542
H         2.36554907445638    3.58458771850191   10.53404297117704
C         2.57068166050012    1.18294176336159    9.21410717502251
H         2.93868524550460    0.16384098371129    9.12057552277133
H         2.19675319999758    1.50918388628199    8.24777794554706
H         1.75490388342706    1.19485025257530    9.93102568895803
C         9.74858019139859    4.99608761611124    2.79801152982049
H        10.20455355060517    4.34965973763886    3.54525004343921
H        10.37446972430593    5.87367138709026    2.66448092056143
H         9.70707453215110    4.44789582506825    1.85903342338629
C         8.38748768259271    5.40983231072113    3.22367951060796
C         7.90360175012553    6.68739987518101    3.45243515480443
H         8.44839025306781    7.60330312176898    3.34220134533103
C         6.56710721424311    6.50340900783834    3.82650571001522
C         5.46077509569651    7.41222125631394    4.16707347523991
C         4.88503043789644    9.77161676391798    4.75271401794947
C         3.90003795159942    9.96705569159245    3.59784810978120
H         4.43255095722271   10.22355125016730    2.68500562070853
H         3.20271715552940   10.76631821186683    3.83144320702556
H         3.34316068896734    9.04944036165357    3.43102769937615
C         5.72177248044323   11.03227801331412    4.95939440423990
H         6.26446034791194   11.28607911837638    4.05134285117533
H         6.43592444861994   10.89343388798452    5.76881519413546
H         5.07679761936144   11.86857805906383    5.21314440150834
C         4.13102030655072    9.41608065202555    6.03720887646524
H         4.83104847351903    9.25361877674282    6.85393185654451
H         3.55475393831515    8.50830556928316    5.88474681302742
H         3.45647160680453   10.22328479679882    6.30789141999390
C         7.11979805594987    1.29330678180962    0.72191503858248
H         7.84773546838846    2.04220062028429    0.41659698189089
H         6.77134798636588    0.76300688865084   -0.15963060831847
H         7.61832179266497    0.58708556172838    1.38269926265334
C         5.96916134900272    1.93125657950255    1.40969137073318
C         4.63249677895691    1.90697516620867    1.05045453060500
H         4.21306382861083    1.41191785284400    0.19822077018819
C         3.98408009055785    2.66130956377152    2.03624996786236
C         2.58743983261776    3.04396760599853    2.27407211182543
C         0.24555195096171    2.84030045381659    1.42488099715602
C        -0.33317240862517    2.27622899038066    2.72541045653827
H        -0.18148864250537    1.20026077012226    2.76952952643342
H        -1.39878595342171    2.47959828541028    2.77826756845761
H         0.15557257715993    2.72698659358140    3.58412881422855
C        -0.00627722762060    4.34717116130534    1.32363206444285
H         0.37587328868567    4.73023894674187    0.38028975807177
H         0.49359167600177    4.86973554284231    2.13389469150922
H        -1.07175763767107    4.55143312363455    1.37571259455174
C        -0.36677732370567    2.12376663652116    0.22360628333922
H        -0.18124049225534    1.05308148844150    0.27816636344764
H         0.04792393595462    2.50730094526038   -0.70627573879487
H        -1.44124535705458    2.28141066077322    0.20638802683702
C        -0.19877612944754    6.14977144545959    6.31736961173592
H        -0.47238822922750    6.70010406682436    5.41847932695528
H        -0.50324101636992    6.72588530562123    7.18575237404923
H        -0.74162556412328    5.20605119264290    6.31404994593960
C         1.26385768956508    5.90630656376363    6.34918473202989
C         2.23199562606060    6.30407286179923    7.25486246077357
H         2.07525466333027    6.88975480798163    8.13782092619624
C         3.43409362112436    5.77936006425441    6.75624645914006
C         4.83029877567687    5.82537729016182    7.20459301882789
C         6.39716313197951    6.60548504322711    8.97528763724665
C         6.98460158612401    5.21922426978412    9.25379597715793
H         7.07606907968510    4.66277364599557    8.32526107071401
H         6.34077511365580    4.66441872022515    9.93248560873004
H         7.96727156290216    5.31575003052018    9.70627068777552
C         7.30667646504641    7.38577822806601    8.02241712013517
H         6.89701139823188    8.37555878099000    7.83334627126131
H         7.39386039766316    6.85553599728397    7.07813931357906
H         8.29540138534861    7.49632718092011    8.45807693653220
C         6.20574358558072    7.37521085480389   10.28010499932697
H         5.77664161380000    8.35672223550972   10.08976233989526
H         7.16354497757360    7.51362304625668   10.77313982793033
H         5.55058110617458    6.83087650032911   10.95710101364507

