63
CSD_code = HERYAF | q = 0 | S = 0 | Stoichiometry = C28H30N2O2Pt | MND = 4
Pt        1.49426618420653    0.78101357606022   11.97621149649829
O         2.47317054138825   -0.64469412984112   13.26043424963419
O         2.82127648330690    2.16355498437990   12.60734864112906
N         0.16335725358509   -0.47920354562194   11.31098942489107
N        -7.07093337370693   -7.76138305852913    8.00173778133379
C         0.51959486911421    2.00218353514415   10.74816452927713
C         0.77099467394367    3.34435251585453   10.49240486728124
H         1.58651216481899    3.83766508140270   11.00142139332885
C        -0.00898730781608    4.05659652904871    9.59511699670628
H         0.20038536402282    5.10064991789598    9.40753135152988
C        -1.05979965122213    3.43914814360412    8.93291929112931
H        -1.66363994158061    4.00101680636875    8.23465041637422
C        -1.33516964657351    2.10579921276660    9.16532558592789
H        -2.15533210526355    1.63141712644567    8.64586191385853
C        -0.55340610284592    1.38656829623969   10.06632580473756
C        -0.73770328190034   -0.01939098378704   10.40171289034737
C        -1.71040979880427   -0.85949939722381    9.88588602646568
H        -2.41397284013299   -0.47323893708826    9.16482829906266
C        -1.80296605192476   -2.19783958099635   10.28347660534953
C        -0.85486439258372   -2.63339608517394   11.22331147889581
H        -0.85145007711791   -3.65111363828021   11.57683332670595
C         0.09065388422347   -1.75473973948326   11.69773438435921
H         0.83063516134748   -2.07324858982253   12.41993851214673
C        -2.83250219593517   -3.03376049318217    9.72072613220264
H        -3.43586582736072   -2.55331542909054    8.96268067140327
C        -3.09423986264277   -4.30934854638960   10.06525398574041
H        -2.50015221438202   -4.77675224310585   10.84018135943266
C        -4.11879513965091   -5.15602647189982    9.51186844516577
C        -4.96709134869473   -4.77799354395812    8.46486108802456
H        -4.87392588876609   -3.79666673698208    8.02554649501450
C        -5.93030754031802   -5.62449216041463    7.97263833421234
H        -6.55850339966412   -5.26398059753478    7.17456448029901
C        -6.11272666452805   -6.91857810676935    8.49255146079753
C        -5.25839320239248   -7.29962335497037    9.54183579413699
H        -5.33147083110289   -8.28197967356130    9.97904503652080
C        -4.30000766367777   -6.44439281252342   10.02915620968009
H        -3.66272298438670   -6.78089856247018   10.83552391953606
C        -7.81500159775137   -7.46086840000254    6.79939674423684
H        -8.08578582323526   -8.40845683030301    6.32498199022544
H        -7.17479897147908   -6.92033034645732    6.09813129196933
C        -9.08684804508909   -6.65714079869040    7.07930030007530
H        -9.61573769536599   -6.45974654283175    6.15052677610710
H        -8.84506484598519   -5.71008467168169    7.55422481336858
H        -9.74694461657417   -7.21051812267158    7.74319751030537
C        -7.39994670586568   -9.01038578926278    8.65050191276995
H        -7.29301185406815   -8.90002335078701    9.73221561795573
H        -8.45326560522288   -9.22695872488560    8.45036729252266
C        -6.54290232984172  -10.17628456913632    8.15238533010088
H        -6.82697313779765  -11.09322984539699    8.66210576027307
H        -5.48944150351722   -9.98336539060981    8.33675579293347
H        -6.67954012381394  -10.31777878581301    7.08277248592065
C         3.46534834277514   -0.39844351293335   13.98920122046228
C         4.11198118711510    0.83560634444161   14.11602954615870
H         4.95246638563285    0.88782890816343   14.79149338692100
C         3.76056042495354    2.00282050490776   13.44111298052878
C         4.01833273535447   -1.54395140470472   14.81512278407480
H         3.45342099656619   -2.45132636557565   14.61610243677346
H         3.95057164858827   -1.30385344769131   15.87423401949079
H         5.06501139567817   -1.70955907804907   14.56910969248682
C         4.59565629156083    3.23498724721541   13.72985712358602
H         4.23125049157398    4.06912548358170   13.13632894248443
H         5.63871221887381    3.04636679340649   13.48567657617785
H         4.53214349195746    3.48936138928901   14.78566899293770

