43
CSD_code = HESBEP | q = 0 | S = 0 | Stoichiometry = C18H14F8N2Ni | MND = 4
Ni        4.13483061498625    2.36237406704181    2.22265003777867
F         2.47279788010506    4.28224636494943    1.06084717274860
F         2.11336682086603    3.68342153078733    3.11611406090891
F         1.57748852425318    1.92408716614339    0.09905545918190
F         0.13299672027641    2.67987152943928    1.52545781934985
F         1.00119605167782   -0.16519039745188    1.72137948750210
F         1.12773114321197    1.07675323347698    3.48985731265212
F         3.58714439881436    0.20300818072374    1.11276188544195
F         3.49765591670499   -0.15758931133080    3.25464737450438
N         5.86068238821689    1.47447438521016    2.77832481041803
N         5.11629735287067    3.98423758567121    1.94049979016069
H         4.77990421676160    4.62324417477904    1.21523753564748
C         3.15702566179847    0.78287120326803    2.30681365028414
C         1.62416529530447    0.91481594950572    2.24113367408438
C         1.38801703804082    2.19888162067458    1.41428395897018
C         2.48568193680848    3.17723486331202    1.88281748539208
C         6.19666948110927    4.37511076367276    2.51145729816943
C         6.85984012580482    5.62223993323583    2.09466996909628
C         6.09442154661225    6.74341695042356    1.77347628748289
H         5.02024524709953    6.71257379365739    1.88692368840377
C         6.71040699976913    7.90785772511514    1.35527910654264
H         6.11243463007225    8.77581654648665    1.12368541803623
C         8.08954164120923    7.95964542236209    1.23098713801088
H         8.56777868042299    8.86800519975477    0.89784998296396
C         8.85529363659532    6.84524124585407    1.53535870504605
H         9.92927305564527    6.88242468863939    1.43354963258216
C         8.24817036597156    5.68355427518589    1.97359978392637
H         8.84478558565025    4.81268916726397    2.20355987622921
C         6.77605413880971    3.61002161233973    3.62537333342133
C         7.47453598573268    4.29028884080365    4.62402192017743
H         7.62583422638894    5.35461589140988    4.52822700033839
C         7.93780122276663    3.63189646708521    5.74689575386678
H         8.46896829132235    4.17944203968037    6.50944696185949
C         7.70297387701275    2.27561408034344    5.89620907519113
H         8.05104286677477    1.75565607980493    6.77513355740539
C         7.01799892799360    1.58290134190841    4.91299134513597
H         6.82943217798343    0.52542975906644    5.03410677360907
C         6.54770785352273    2.23113162766307    3.77900839296398
C         6.68704726609831    1.22018090461206    1.58028720247135
H         7.57452573547809    0.63504877216395    1.84238565390361
H         7.00892856731916    2.16001283323519    1.13303323439349
H         6.09905192502811    0.66661853199902    0.84805490552001
H         5.64045398111022    0.55942336003340    3.18194648822812

