44
CSD_code = HESGIW | q = 1 | S = 0 | Stoichiometry = C14H23ClN5Pd(1+) | MND = 4
Pd       -0.80307332706712    3.82069232947410    9.03646806442450
Cl        0.18446181587533    4.81775841667092   10.76702249687208
N         0.40147452461000    4.70181578663315    7.71276615198181
N         0.94413954595260    3.96350448374951    6.72436937288406
C         1.70103278000087    4.74137215321921    5.91375080434715
C         1.63159190609642    6.02133849961762    6.42201409949152
H         2.11568711009995    6.89346763503515    6.03553848898591
C         0.79710364151810    5.95786279227530    7.54723435466721
C         2.43201910103986    4.22290476814853    4.73310888645951
H         3.13994716437976    3.44740782928778    5.02331412962372
H         2.98535343467821    5.03416406162913    4.27018717930191
H         1.74771803437885    3.80782403233009    3.99350441110225
C         0.33705635540687    7.06037639340716    8.42618735138127
H        -0.59231979931629    6.77619846453675    8.92922810231912
H         0.18247739994924    7.96527185918191    7.84391143583831
H         1.08475591001371    7.26865685956568    9.19044600307014
C         0.55490753534374    2.58732504921784    6.55721951490950
H         0.76015700717655    2.03774199649630    7.49280840000813
H         1.15516382522231    2.15357106324502    5.75731263112047
C        -0.94556056014495    2.48599359269603    6.21201025503667
H        -1.20750152093470    3.30138335842736    5.53035127122768
H        -1.13896198269832    1.53369809637805    5.70220738280759
N        -1.74613782234055    2.61046789083274    7.43163269463046
H        -1.67687579348985    1.72072150033109    7.93566668007130
N        -2.16646841935012    2.92826391628083   10.19612139918617
N        -3.42906107373504    2.99001387156344    9.72206731644202
C        -4.27027619826372    2.30375578628628   10.53180654847457
C        -3.49777661081067    1.78558580335722   11.55076735968788
H        -3.83468629047118    1.18905824963819   12.37231536896419
C        -2.17946600484330    2.19707989021436   11.30182423400544
C        -5.72822038904016    2.19673463490180   10.28797308318042
H        -6.19923037014189    3.17871337472787   10.32444138328546
H        -6.17683585624263    1.57521912936235   11.05674300176676
H        -5.93767195590260    1.75069037671054    9.31637565117135
C        -0.93892151253956    1.89664735634063   12.05602315484641
H        -0.06602159856073    2.08180837175855   11.42411575306314
H        -0.93968271206485    0.86433953313354   12.39709984622686
H        -0.86817227206559    2.54409426745249   12.92911796841997
C        -3.69013691378142    3.70392224478307    8.49806751066810
H        -3.17814671308889    4.68562357416115    8.55544130276462
H        -4.76413135852606    3.86844209303743    8.40124681851514
C        -3.16615554982023    2.93735001056793    7.26370808797566
H        -3.76647537229919    2.03262964287479    7.10587965297051
H        -3.28437911420314    3.58500896046114    6.39150439582203

