41
CSD_code = HESGUK | q = 0 | S = 0 | Stoichiometry = C19H11I4N2O4V | MND = 6
I         3.28477012226505   13.52289040036236    0.41193624973072
I         0.13596127333695   17.61421324824243   -2.73858714376682
I         9.55650840619398   22.42590136386875   -2.96747717773685
I         8.84583572626961   18.15316574606932   -7.18456775783416
V         4.34643335077780   17.79391592153711   -5.39155202594284
O         4.13208779711109   16.53915949829930   -6.23215783404035
O         3.66439541644019   19.04624360912401   -6.16208403694841
O         2.93206826396232   17.66446434860715   -4.21886728096693
O         6.06319135614724   18.09115502859495   -5.76217519259344
N         5.18665656739275   16.45884212632438   -3.84752157569494
N         5.02143272676620   19.37967816165636   -3.70263949261978
C         6.33995768309487   15.84537297691207   -3.74400840894687
H         7.11049048007372   16.11986910735434   -4.45477144101874
C         6.57548430364215   14.86314134361843   -2.76789887417175
H         7.53910098483440   14.38082141006296   -2.72377210585498
C         5.58399598269728   14.52832263269440   -1.88221808072600
H         5.75321880356947   13.78088203897348   -1.12042974969141
C         4.32842202395428   15.16098424387953   -1.97363092647326
C         3.19956905691311   14.93188739742238   -1.16082683357831
C         2.02290050628868   15.61242199407204   -1.36747635906134
H         1.16900335299009   15.42533613783147   -0.73377067671661
C         1.91230246480661   16.54525389759975   -2.39445564685026
C         2.97258179337775   16.82151480871271   -3.24866111104254
C         4.19401802094674   16.12442050292040   -3.00785642231015
C         2.81662234627668   19.39996252892702   -7.16893567490688
H         3.10921002485543   20.36697059315466   -7.60505522691347
H         1.79737703156146   19.48981641072256   -6.76106401961210
H         2.82665635559423   18.61598552047703   -7.94516102719473
C         4.45843777020324   20.01201135666659   -2.70535944883074
H         3.44698111260813   19.71938616125744   -2.45164696790929
C         5.11525899369110   21.02611653546046   -1.99021154562603
H         4.60725733168290   21.52155878209073   -1.17822374777742
C         6.39653701011784   21.37007635100527   -2.33350523723058
H         6.92408649077133   22.14210590129596   -1.79206844595705
C         7.03289183615533   20.71294629578550   -3.40516956473602
C         8.33921175447196   20.95530674447071   -3.87830370904260
C         8.85565662182091   20.24675823862295   -4.93561602126986
H         9.85905467752124   20.43933976974551   -5.28400534462434
C         8.09323773577503   19.27105984415698   -5.57198339900237
C         6.79072777209343   18.98253040770652   -5.18071864099263
C         6.26970867094744   19.71321061371294   -4.06820207351713

