41
CSD_code = HESHEV | q = 0 | S = 0 | Stoichiometry = C19H13Cl2N2O4V | MND = 6
V         7.13624464161155   -3.02746275579353    4.81475361955994
Cl        5.89864598354782   -1.04838475444429   -1.67837120876001
Cl        9.62162826189359    2.95747235157602    7.42863389439484
O         7.57314917759346   -4.40529551618763    4.32193550643440
O         6.33927845006990   -3.22774550236505    6.22275394505474
O         8.70949497973031   -2.47361979219027    5.44943855361034
O         5.55770878792869   -2.81201846016211    3.88569042838868
N         7.86273821071500   -2.19877401574400    2.93561693730365
N         6.82297857525406   -0.66891460470146    5.08971902847800
C         9.07126025003745   -1.92547372559332    2.50900415056692
H         9.88100174211267   -2.04513954340549    3.21923471544429
C         9.32121468084430   -1.50430017757583    1.19207686462987
H        10.33505917732272   -1.29594736383311    0.88772992333004
C         8.27999348033309   -1.36143073270240    0.31174115618434
H         8.44384183759429   -1.03358157408380   -0.70410192635343
C         6.97073136775470   -1.65502697030207    0.74303549673947
C         5.79539355325648   -1.57095354118322   -0.03114276690886
C         4.57364218228965   -1.90460271749374    0.50611488166268
H         3.69078467241167   -1.83543276372250   -0.11139978133972
C         4.44376283300543   -2.33338435717991    1.82706946464995
H         3.47164954709480   -2.59750753097745    2.21390825864722
C         5.56263317088333   -2.43906503764069    2.65052255743037
C         6.82978842815833   -2.08509693924499    2.08770572151556
C         5.82016314723847   -4.17476475210052    7.05540338473867
H         6.20167388488116   -5.16745643231495    6.76110920881352
H         4.72154527568434   -4.16934205704309    6.97998614717555
H         6.10043886320702   -3.96271642762093    8.09899481738745
C         5.85984440728169    0.19427986438641    4.89281946188522
H         4.97878000160876   -0.17050396201976    4.37888161503162
C         5.94365140570137    1.53071376294236    5.31644729817182
H         5.11948216584633    2.20130749261108    5.12972544531980
C         7.07423792384326    1.96246388733217    5.95898378086265
H         7.17354742234170    2.98421943661018    6.29421792260729
C         8.12824189461058    1.05473715122282    6.18743705272480
C         9.34368009166356    1.35394897571906    6.83784880242945
C        10.30586567777014    0.38745660087663    7.00956401685021
H        11.22710421444088    0.64027726760827    7.51207091681621
C        10.11819136417873   -0.91475939104807    6.54747308853303
H        10.88587896254845   -1.65816578239733    6.69931596326543
C         8.94021129149678   -1.28380743043504    5.90225098078655
C         7.93803801421399   -0.27450217937905    5.72370067593808

