102
CSD_code = HESHOF | q = 1 | S = 0 | Stoichiometry = C53H44ClOP2Ru(1+) | MND = 9
Ru        2.07203499480333    2.38182988173349    8.94780253525244
Cl        0.00379566380156    3.01883143447373    8.01341835022884
P         0.98037047835416    0.64918340511211   10.05647037432952
P         1.48112230807381    3.82943888679876   10.63113341464399
C         2.27731976218493    4.27826314334075   14.59535371430016
H         1.91878781978390    4.89051114050814   15.40847306884240
C        -0.04061327320350    1.81068767251073   12.40745077671536
C         2.20198472142062    3.63609694339264   12.28441050214143
C        -0.86317044652608    2.74562732183587   11.60551097652757
C         2.32508686749480    3.91445241698024    5.71341786386029
H         2.17717902068670    4.95803968016281    5.99824541303551
H         1.35167316890345    3.49393478417399    5.44965962353369
C        -4.49846781624122    3.37335206380698   10.99038772346363
H        -5.10680289631735    4.09154061709699   10.46101835960330
C        -0.60884430750849    0.08389093850475    9.38379663430407
C        -2.27888968359669    2.60472138990392   11.66387598840357
C        -3.09905896928098    3.54563995821831   10.98688622950469
C        -0.11098515533410    1.96222685454939   13.82348581148816
C         3.75298055207364   -2.99032016854059    9.49509780492557
H         4.41829915059249   -3.82768987971863    9.35270309018495
C         0.70312101536020    0.77650990752947   11.86006989472695
C         0.56496222467259    1.04104487536506   14.66387293673539
C         4.12915808757018   -1.93638655662416   10.31478171180411
H         5.08559970617206   -1.95616256187636   10.81596055803918
C         1.49809011418627    5.99259254907484    8.90481216924328
H         0.89201964184685    5.35390107486725    8.27450902209371
C        -0.14681867101053    2.26694780155481   16.61567673644134
H        -0.17124299326309    2.39876283991691   17.68654464797059
C        -2.49663255694994    4.65316099202396   10.35638307707516
H        -3.12773652896222    5.39319281019546    9.88745331927695
C         1.73778125993376    4.42795377815868   13.33180532665767
H         0.95533945954099    5.15151448071323   13.14660782077861
C        -0.31086052434959    3.81920928720340   10.92884738754007
C         3.61941328117142    3.79638694644547    7.87705076934077
H         3.72086398302971    4.87551882050215    7.85762927374237
C         1.22632903964262   -0.05336423660453   14.07318598972668
H         1.67947859331067   -0.79733289131026   14.71139734090455
C        -4.26893397413835    1.41652144896426   12.35575062031410
H        -4.73372284470822    0.60638566136908   12.89730714783008
C        -0.82496767762433    3.17590227454227   15.79014755624059
H        -1.36327252283419    3.99777932180825   16.23735188985856
C        -2.90935976048103    1.55364951472168   12.36697073302049
H        -2.30719815230431    0.85805340801929   12.93129883425414
C         0.53347149123070    1.21980291817729   16.06155715507339
H         1.05638977196961    0.50882045978341   16.68386212306529
C         1.66124166170885   -1.89332284828408    9.04710128017051
H         0.69903538117502   -1.89024855162043    8.55690844947217
C         2.92191835483557    3.14726899947366    6.85290721045377
C        -0.79455522945710    0.07694221590814    8.00265242055728
H        -0.00234847345788    0.43085091496220    7.35514898878209
C        -1.14110530325972    4.79077246021033   10.33258555387710
H        -0.69356839379060    5.64968404263827    9.85739478655095
C         3.73953494688538    2.55479043542446   13.77830464724670
H         4.51647454640643    1.82671095269507   13.95709398928185
C         2.76257293574557    6.32217221662904   10.92763036924439
H         3.13368746942048    5.96092385327503   11.87547967886941
C        -0.80879152666065    3.03035868226370   14.43107258579679
H        -1.33122355994090    3.74150098429441   13.81027698766005
C         2.03315750294488   -0.82930217645030    9.86243060281441
C         3.27925638699708   -0.86204843031668   10.49269974705491
H         3.56651130268125   -0.04558220040547   11.14177174883348
C        -1.98578524980202   -0.37297137954761    7.46706063166033
H        -2.13099491876532   -0.36774135352286    6.39739432662469
C         1.93640273034058    5.52069081962260   10.14455651512115
C        -5.07286076331739    2.32446471335305   11.65074831550712
H        -6.14438133810306    2.19579540014196   11.64705335290953
C         1.29203353792746   -0.17994516913773   12.71806556773406
H         1.77978895569682   -1.04283917237136   12.29385550230318
C        -2.79770363844204   -0.85754269431669    9.67347605449941
H        -3.57369726982102   -1.23036669811234   10.32450222913856
C         2.88178089763947    1.72696044606948    6.84761341966485
H         2.39029260942710    1.21652014573111    6.02675558311422
C        -2.99444389534931   -0.82636405463493    8.30337619752959
H        -3.92958293239341   -1.16490220536449    7.88430177389042
C         4.25949462580979    3.05621652174012    8.90133159123637
H         4.84777043941361    3.58184078172704    9.64758588101695
C         3.26960868022303    3.33718720172043   14.82097869945814
H         3.67927460187602    3.21575326182033   15.81171329597656
C         3.21107362020311    2.71051587839677   12.51043132393795
H         3.56038368267419    2.11028061467925   11.67796181332980
C         3.26328765088943    3.84284379674475    4.50338984723317
H         3.43007278432290    2.80539928074221    4.20810189287748
H         4.23406710906222    4.27564504705861    4.75323035182292
C         2.51999640980153   -2.96575744875755    8.86658592903002
H         2.21973461647891   -3.78645118832375    8.23307181407557
C        -1.60553860775987   -0.41208247137696   10.21581562901912
H        -1.44264915080803   -0.45770209981518   11.28132434648237
C         2.69754314978021    4.59326956444224    3.30076794438420
H         1.72256073390584    4.16766533077203    3.02137639574226
H         2.54961671280604    5.65273286571821    3.55687889776569
C         2.64883866374956    8.06526446229999    9.27678560342584
H         2.92018966786197    9.05567378448463    8.94519403552358
C         3.59241440878761    0.99253277725295    7.80211913411931
H         3.66583192338436   -0.08569301633211    7.70891972496875
C         4.29080580938502    1.65310457430186    8.83764640063723
H         4.92030823815051    1.08598976863511    9.51205116161041
C         1.84510408812705    7.26226171730159    8.48189007128481
H         1.49054818488772    7.62643294002066    7.52889260840980
C         3.11191244339024    7.58924315918255   10.49194227325216
H         3.74986994163184    8.20617161673001   11.10643500901703
O         3.62345883762963    4.45694100756936    2.25022655052849
H         3.29790058576038    4.91686651504766    1.46980096057196

