61
CSD_code = HESHAP | q = 0 | S = 0 | Stoichiometry = C28H29Cl2PRu | MND = 9
Ru       14.16002534411680    0.68516052713144    6.05748030289817
Cl       16.34468134724018    1.33568737693988    6.65491920720675
Cl       14.89614316774610   -1.51341168620698    5.60369143524909
C        13.33347225869955    2.46151541836451    7.21301926414616
C        13.57708288146212    1.41649427459499    8.14902816654652
H        14.19374299297082    1.62578091532744    9.01777592210819
C        13.01406950712820    0.15261104543940    7.98248025178103
H        13.18809910384880   -0.62004823047479    8.72392495446663
C        12.15136280407736   -0.12283291675893    6.88137828308149
C        11.86989337032031    0.91522009006606    5.98210740073395
H        11.14510189126000    0.76311867961702    5.19207755297496
C        12.48135796616534    2.18915935912813    6.12748026771070
H        12.21324329330275    2.99143630586949    5.44616770360117
C        13.92093193271043    3.82093420045844    7.44302238308780
H        13.70577243427558    4.48547073755343    6.60883512476820
H        15.00263214290361    3.74094900510207    7.55796475960454
H        13.51519140222027    4.25556801928309    8.35751983179377
C        11.44551140913988   -1.45513280894139    6.80768833937064
H        12.01310125872800   -2.17125453880767    7.41224098786520
C        10.04774845109824   -1.29932742124559    7.41863893743426
H        10.10988011717285   -0.93317261192036    8.44199690466786
H         9.53755170470354   -2.25923504516030    7.42595847399137
H         9.45387848560794   -0.59702281075902    6.83632765017812
C        11.36601138791890   -2.00953792716442    5.38659041245574
H        10.73342201059895   -1.39668226466834    4.74799019814920
H        10.95235742905216   -3.01461474585642    5.40838896220016
H        12.36314317929894   -2.05668692899300    4.95373136614437
P        14.63548023978883    0.85404422541305    3.82949474313503
C        16.14071893261498    0.19500838149491    3.04276523257924
C        17.24873361136942   -0.18562325939148    3.78834280947182
H        17.21637756317334   -0.13091405567686    4.86629750658697
C        18.38590946937766   -0.64385993958214    3.14504570904337
H        19.24294163052606   -0.94493044681147    3.72842796137534
C        18.42538428746675   -0.71866425374369    1.76367621678098
H        19.31280325047310   -1.07999329863205    1.26474707445084
C        17.32378602336496   -0.32949662780967    1.01731011248634
H        17.35200955416490   -0.38560189059973   -0.06138824083629
C        16.18569788586334    0.12977860578180    1.65094905959905
H        15.32539629550827    0.42806712498427    1.06781399385354
C        13.29976061643428    0.06760779484679    2.88438216802403
C        13.42086299908093   -1.26441688787647    2.49832955642372
H        14.33551394924339   -1.79665243855476    2.71712840488619
C        12.37051474302504   -1.89685686974045    1.85794864731158
H        12.46826079318202   -2.92986761906590    1.55957889557689
C        11.19341073415298   -1.21145556985295    1.60444910549142
H        10.37517749603787   -1.70674644661394    1.10277305406965
C        11.06194923800655    0.10971014878662    2.00205895567233
H        10.14167231595893    0.64383809213931    1.81108293672737
C        12.10700106185414    0.74599720278702    2.64675257904445
H        12.00552886836168    1.77660620205149    2.96183117706835
C        14.70055981270352    2.57286478250209    3.22272621810884
C        14.24699085748835    2.97741665519919    1.97168842430623
H        13.78272576339154    2.26762386759820    1.30199533652339
C        14.38314498766800    4.29849779353248    1.58353149961088
H        14.02455607960409    4.61005773305327    0.61304666321105
C        14.97855545669239    5.21923432668420    2.43027968534489
H        15.07958564668738    6.24914408217269    2.12068064956024
C        15.44997049562698    4.81551084314993    3.66903359615577
H        15.92681858003462    5.52833113428880    4.32565135028811
C        15.31332527520525    3.49735553851477    4.06408187001060
H        15.69186621210583    3.16183905102937    5.02176200384857

