45
CSD_code = HESHAR | q = 0 | S = 0 | Stoichiometry = C19H13N4O8V | MND = 6
V         6.51748027548870   10.87882467764929    4.77990033381077
O         6.93086052456532    9.50346032104331    4.26780970106877
O         5.77917100230156   10.69650233170711    6.21127909213987
O         4.90121036288391   11.08567900943350    3.88842401668212
O         8.14203808629771   11.40989223465871    5.37299541336058
O         3.95324588029752   12.28896312764198   -2.06899167571441
O         6.01827644938920   12.86000627640172   -2.01551634993718
O         8.08849597311112   17.21916498365053    7.73327602738634
O        10.14350040957472   16.63679727472772    7.92332039954065
N         7.17223960415582   11.66726879424837    2.88042164142230
N         6.25355079044230   13.18349374942449    5.07637102628272
N         5.01042042734685   12.42917199161539   -1.48362934786030
N         8.99703660549975   16.42323409286258    7.57836020900815
C         8.38012965901854   11.91509571430643    2.43144742515035
H         9.19506718097941   11.84490523014019    3.14260675253381
C         8.61408308628297   12.24162424232449    1.08918767879575
H         9.62336814020604   12.42683031926870    0.75678997980152
C         7.56654571028594   12.32524304362356    0.20558735836811
H         7.73545058183210   12.58438795616878   -0.82764563189279
C         6.25511434070591   12.06482032960565    0.65988694638352
C         5.05095753752314   12.07966097235148   -0.10099102383133
C         3.84390948125206   11.74295896538641    0.50198024101732
H         2.95908472816817   11.75923977145450   -0.11869320199363
C         3.73649864406295   11.39905458631483    1.83573285438493
H         2.78043651440553   11.13734381137001    2.26141315510336
C         4.88021841314530   11.37525296191564    2.64250492293443
C         6.13543113576294   11.72008216446230    2.02942082250666
C         5.29839281745619    9.79916140395167    7.11636316044945
H         5.67941289933672    8.79354155723676    6.87085200517152
H         4.19818480570322    9.79289975199873    7.07655195335474
H         5.60833126915641   10.07849914990288    8.13493309968520
C         5.26850447805204   14.02872425856242    4.89866760494959
H         4.40348300535050   13.66481637251289    4.35723819647295
C         5.32164552091705   15.34483114391806    5.37565497726645
H         4.49235304818332   16.01093965573194    5.19742710517989
C         6.42898885421257   15.77740672939960    6.06126390685424
H         6.48429823918373   16.78781715439247    6.43414406035053
C         7.49982038782983   14.88475823715957    6.28662425176742
C         8.71823747168417   15.16182602268496    6.96900906348115
C         9.69669704721391   14.18204739619780    7.07240489296284
H        10.60710597260267   14.43849295942318    7.59528561400116
C         9.54053934289809   12.91240656456503    6.54886734267303
H        10.31426075189798   12.16897257952353    6.66267578820847
C         8.36037429377356   12.56753002783319    5.88089134441061
C         7.34494824956271   13.58017010125145    5.74969686630817

