35
CSD_code = HESLOH | q = 0 | S = 0 | Stoichiometry = C16H13N3O2Pd | MND = 4
Pd        7.59452849880057    5.21284431834712    6.68632827067531
O         6.35547019801333    5.22305026391142    8.22940190421703
O         8.53756111699089    6.64728626804642    7.67189466440133
N         8.94084583919127    5.25113977318535    5.19404895397619
N         8.42875642562713    3.05746251702477    4.45895011428283
N         6.58759298980648    3.71847877564102    5.79565996428493
C         9.72596990134717    6.33700082167898    5.08315538686611
C        10.81599461396339    6.39827991864182    4.24083120731136
C        11.12587363331045    5.29191582049676    3.45912006825672
C        10.31207954568719    4.17887565327889    3.54775687515511
C         9.21990745761973    4.19056265598331    4.42072790239384
C         7.15434019532765    2.84399172971847    4.95030432367575
C         6.49145672331815    1.68728356680866    4.52875932371537
C         5.20921822316239    1.43474214342652    4.97721246455732
C         4.61542229341863    2.35834830785391    5.82899525887123
C         5.33088043761447    3.47491059332816    6.20693221515237
C         6.70561795131035    6.19363896960464    9.08677837366099
C         5.97953165397257    6.46386087276183   10.24075008887556
C         6.39546103228987    7.47817739989220   11.08914281124405
C         7.52868479935798    8.21810009426751   10.79961239758378
C         8.26811329082409    7.95807595083572    9.65621600944390
C         7.86219210810930    6.94859847982708    8.79125814021288
H         9.46537609291060    7.16759346179511    5.72895634931090
H        11.41397167933247    7.29326749973262    4.19926619857950
H        11.97390431959345    5.29764275438179    2.79290302201508
H        10.50926624865016    3.30151425891790    2.95039695532779
H         8.76679765336096    2.30757821564542    3.87067713853580
H         6.98630647920830    1.00280356904704    3.85638495748594
H         4.68547451724314    0.54571184067789    4.66378075627343
H         3.61369591394203    2.21154895934446    6.19692781345917
H         4.91518612067681    4.20550044069554    6.89122740431465
H         5.09674100694033    5.88003219521857   10.45948962988437
H         5.82666620892062    7.68966095231036   11.98370386808242
H         7.84364440176371    9.00677798675457   11.46839425964870
H         9.15497042839538    8.53004297091699    9.42325492826930

