39
CSD_code = HESMAT | q = 0 | S = 0 | Stoichiometry = C13H15BHgN8S | MND = 3
Hg        1.47256327723163    0.34739293844156    1.20181276973810
S         0.00683509601463   -1.36302426035323    0.46045920062693
B         2.89450890702830    2.54795101568134    3.30372947068744
N         1.42666812256567    2.96109921611264    3.10313399101052
N         0.60926499208170    2.21607056630805    2.33510177656429
N         3.59361779976031    2.56548330477521    1.91357937500831
N         3.29431186397304    1.73128489129581    0.90627587214656
N         3.67993450254286    3.45107019039131    4.22860270544111
N         3.23433040154129    4.55614090024409    4.83767115931394
N         2.90712813211225    1.11955003405267    3.91231113797042
N         2.52393659489750    0.01973621706887    3.24664533897142
C         0.75310313361236    4.01010874777311    3.59474231922606
C        -0.54489907207308    3.94946637250994    3.13244853831945
C        -0.58153546550201    2.80444627789872    2.34443072478275
C         4.51326490432844    3.44960275527548    1.49737823376618
C         4.83125157246725    3.17221836534033    0.18504374664501
C         4.03306082749749    2.08094480999891   -0.14008116235728
C         4.97983838233219    3.23646468105715    4.55554826902624
C         5.37711011764322    4.23916006179498    5.40390717855587
C         4.23457892980235    5.03920009498731    5.54399871218076
C         3.20108872450624    0.79374840526220    5.18088669807422
C         3.01976393824444   -0.56310458902254    5.34010312375838
C         2.59164194431098   -1.00206038986762    4.09146000464002
C        -1.08132635801792   -1.47749380521093    1.92911788531773
H         1.24922616662723    4.71231878909647    4.23434422839427
H        -1.34460483485420    4.63109975098685    3.33436387255606
H        -1.40065185701962    2.38605469540978    1.78964232175598
H         4.88714076986431    4.22129986234076    2.13839594899417
H         5.53183312400038    3.68380191531537   -0.44125203548187
H         3.96347225932056    1.53806090711945   -1.06404971395376
H         5.51957256737542    2.39670262858666    4.16473840235282
H         6.33775055762307    4.37863673840645    5.85508100497295
H         4.10615783279954    5.93258999932757    6.12265052007509
H         3.51371264124637    1.52726312081814    5.89544326098264
H         3.17201930869069   -1.14500631348097    6.22504055931758
H         2.34470575790099   -1.99558492976376    3.76687349145493
H        -1.72893292177652   -2.32855378152144    1.73954911730927
H        -0.49498059714535   -1.65295819064734    2.82774389300310
H        -1.67806204355764   -0.57448199381373    2.02482805885735

