33
CSD_code = HESMOH | q = 1 | S = 0 | Stoichiometry = C7H18CoN4O3(1+) | MND = 6
Co        1.41298629494320    0.05427610376587    4.50297063116871
O         0.67763209298302    1.52051796755770    5.27194053086981
O         2.61873032066666    1.40369296409609    4.46225697869311
O         1.95500947989627    3.38414419738478    5.33260388846827
N         1.93618452187495   -0.51473614194847    6.32275882473531
N        -0.14075795456973   -1.13899697721822    4.71205523304382
N         0.66068863712226    0.56053612611125    2.79256207550505
N         2.61755601261680   -1.19315482147172    3.41384828575836
C         1.02293851170442   -1.58343273798885    6.77202471442730
C        -0.34540795460932   -1.29053174230404    6.15996453104286
C        -1.21591119209576   -0.44004949165740    3.99284556488587
C        -0.66184020143942   -0.08272538131644    2.61441521079085
C         1.62915433751832    0.24449762838090    1.73193126410753
C         2.19782821096905   -1.14797551457343    2.00038082698180
C         1.77983436005286    2.23956858086617    5.05491021823723
H         1.74865650281926    0.32531393245405    6.88045135832020
H         2.90808840186837   -0.76162836986971    6.51314585556684
H         0.95576719331899   -1.62554735400038    7.86289062540636
H         1.39780069341224   -2.54558470045460    6.41161469729025
H        -0.71426342889937   -0.33813540499602    6.54672972468018
H        -1.06641099354997   -2.07811177042654    6.39769763873106
H        -0.03953704362913   -2.07083897845866    4.30767220830650
H        -1.44307224284680    0.47585569304487    4.54228730657186
H        -2.12372726910762   -1.04570369343988    3.90971492141028
H        -1.35232158851808    0.57642144499372    2.08314462196429
H        -0.53541613942558   -0.99213049834072    2.02281777408328
H         0.52079593454270    1.57289851566320    2.81332876585098
H         2.43742050679016    0.97695901402106    1.79028557599672
H         1.17039499060067    0.29817090825980    0.74002088708520
H         3.03103905049465   -1.34730318840371    1.31990138779916
H         1.43882235338547   -1.91680556159788    1.83660500984970
H         3.48825976269981   -0.66213331737293    3.49412827363057
H         2.84407783841067   -2.15212743075976    3.67069458874085

