47
CSD_code = HESPOK | q = 0 | S = 0 | Stoichiometry = C18H20N4O4Zn | MND = 5
Zn        2.88412814005737    0.70305687792700    0.52165934676218
O         3.93668762758682   -0.06054609809986    1.86947382631303
O         2.61372688638738   -0.56328931150724   -0.77991867192934
O         1.60268565575680    1.10454027965787   -6.64670311440480
O         2.77361134692391   -0.67412824120526   -6.96346657798747
N         1.49900113737556    1.29478793602638    1.81810849858371
N         1.87400114359254    2.27708783856144   -0.73077003706245
N         4.56229465355998    1.80241289390449   -0.24416283029765
N         2.22014698898625    0.13302837493803   -6.23447431856665
C         3.60225216154695   -0.34799560205999    3.07641359596294
C         4.48368964044912   -1.13682758405206    3.86323915692170
C         4.20543601345681   -1.45740731333478    5.16245772838194
C         3.02854595103178   -1.00665085206767    5.77447193308397
C         2.15390857327732   -0.24161007720356    5.05505702488445
C         2.40139346506334    0.10641070413253    3.70959299148893
C         1.44467632579906    0.91323736407104    3.04856990733658
C         0.46994507382051    2.15047017243170    1.28810751485658
C         1.09306922659976    3.05662600863645    0.22338188670390
C         0.99279654728937    1.60732455893105   -1.69630716715384
C         1.73931796290951    0.68058272139777   -2.61359594661388
C         1.66117207585484    0.83399840748030   -3.97671405522287
C         2.30500531402622   -0.05767490114970   -4.83541340151354
C         3.02720002909778   -1.13280832576505   -4.30904299533571
C         3.11889473186114   -1.29066949953009   -2.95299727400864
C         2.49559608790866   -0.39020915457927   -2.05216873305833
C         2.87578670951035    3.09140143156230   -1.41236406031372
C         4.15831441151698    3.16380319909490   -0.58306393202464
H         4.89434180716049    1.31866475144051   -1.07519920673653
H         5.32220890567503    1.79643144777331    0.42888063973010
H         5.38723467964609   -1.48297954789011    3.38454971861295
H         4.89803949384773   -2.06447766010801    5.72790233269155
H         2.82053023266074   -1.26440922327817    6.80149811585557
H         1.24016375794422    0.11200927416919    5.51392612938615
H         0.59478033436058    1.24363909271765    3.65826986672105
H        -0.31746424634759    1.53282213436492    0.84083165395840
H         0.01055085255353    2.76597021561445    2.07233642399750
H         1.76621350189755    3.75328191146101    0.72668998554172
H         0.30575960242579    3.63427038140837   -0.28281712508858
H         0.27349190032715    1.01286228352137   -1.12822695411483
H         0.43971044125435    2.35303785580669   -2.28712039798428
H         1.09158636925801    1.64308472922441   -4.41222899027826
H         3.50627896726950   -1.81922976626611   -4.99059031480051
H         3.67366610299362   -2.11134918273171   -2.52568207185054
H         3.10866340110847    2.60450665166142   -2.36283079524006
H         2.50198874810300    4.10188355573980   -1.62372324780323
H         3.97848689083169    3.70419085335713    0.34931091911354
H         4.92628437578438    3.70293843381542   -1.15264697749786

