41
CSD_code = HESQOL | q = 0 | S = 0 | Stoichiometry = C18H18FeO4 | MND = 7
Fe        1.24133931141983   -2.24817517121599    1.20104667947571
O         1.82950147161935   -4.88187417408300    2.29806500738409
O        -1.62466459574773   -2.56700783003162    0.79459833573393
O         0.28282078583118   -1.17331314122003    3.73029359150064
O         2.49501424559212   -4.36031834205099   -0.55734249779930
C         1.61207493719728   -3.84476261104829    1.87821210887771
C        -0.48986105789642   -2.43185297223287    0.85480997281437
C         0.72170464781451   -1.51286312657893    2.72761113034074
C         2.04055063264521   -0.77974507276147   -0.47228209489616
C         2.61270981298291   -0.53167295932807    0.75893646119042
C         3.33022650895333   -1.59676844318683    1.37524261072121
C         4.31267864743491   -2.36958051855462    0.51470292954605
C         4.05454676173656   -2.10749959175840   -0.96726070873410
C         2.55057469786335   -1.97828032237495   -1.24939889312676
C         1.73209013492535   -3.16721819600064   -0.67864327074847
C         0.43572765580060   -3.41740043538334   -1.38860422425553
C        -0.17181290894003   -2.51151314404692   -2.25749879715552
C        -1.37517873463643   -2.81440316071832   -2.86988502273467
C        -1.99869810832321   -4.02693538433967   -2.64000997862112
C        -1.41324273501029   -4.93536932138715   -1.77214300009800
C        -0.21903391729792   -4.63236660550219   -1.15381155357054
C         2.78801600627951   -5.04048110122158   -1.77070781232270
C         3.92588090795618   -6.01314291202411   -1.50041807423857
H         1.47889035179728   -0.01036735366900   -0.98787525287619
H         2.39477123245020    0.38771410550289    1.29592198163801
H         3.71505429310833   -1.39660741556935    2.37301436707996
H         5.32747100431976   -2.04851493048485    0.77146789278645
H         4.24478539476792   -3.43638096345964    0.72311137944923
H         4.52621879815320   -1.16527031074297   -1.26228892983070
H         4.49385534061139   -2.90224249960685   -1.56794555110862
H         2.39817048300128   -1.85400747122410   -2.32677769503327
H         0.27627594838649   -1.54982413214435   -2.45281445025754
H        -1.82799839253163   -2.09233143264918   -3.53443527439800
H        -2.93653015146698   -4.25870699820018   -3.12211574659092
H        -1.89614792949042   -5.88071190772234   -1.57116427744743
H         0.21837519869331   -5.32611213806820   -0.44962913860163
H         3.06817835090841   -4.32747451409961   -2.55681350615283
H         1.90286940365159   -5.58884107861474   -2.12331875875082
H         4.81727695388198   -5.47638241360698   -1.18459847560439
H         3.63896217942650   -6.69814327913708   -0.70731452359576
H         4.15125643213139   -6.58115072945312   -2.39913693998891

