91
CSD_code = HESRAY | q = 0 | S = 0 | Stoichiometry = C45H37NO5P2Ru | MND = 6
Ru       12.64953936434435    4.81403138759869    5.03876589151494
P        11.71692488070155    4.93614411094271    7.14291261766457
P        13.42669691694643    4.89305104531547    2.86401994206654
N         9.61485078797074   -0.53048482656138    3.87836100062968
O        15.21675378980837    3.68613358373655    6.04584640506934
O        10.06345323848724   -1.59091737825177    4.27860823762589
O         8.58215507020348   -0.43118355302664    3.23764296994637
O        11.04870610713554    6.08455388626454    4.37622808582197
O        12.86122477431209    7.06323248492991    5.08393637607603
C        14.20252520907183    4.07622508592181    5.65800015740549
C        10.57778494321867    3.03223935028054    4.01380078866249
C         9.86301541394246    1.88981693930431    3.72747155003731
C        10.33807358105510    0.65937057003343    4.17423134418858
C        11.52123406336742    0.59070675919257    4.90481907847617
C        12.22190022585179    1.74626533106692    5.17313883049341
C        11.77483701056370    2.99886879197387    4.73694307534190
C        11.69334215809941    7.12740287335977    4.63792576637271
C        11.04736178091548    8.47555446932851    4.40037788646912
C        12.75565331219896    5.66438937485534    8.44732485632913
C        13.91390310151359    6.34984249854027    8.10079765475317
C        14.71260721896916    6.90194571838744    9.08735154001083
C        14.35832492365466    6.77084471185296   10.41956364804032
C        13.20168294561730    6.08978364819132   10.76862687257054
C        12.40049630801913    5.53609982199620    9.78839036048259
C        10.20549138453196    5.94380891483909    7.19633484343122
C        10.13473157510765    7.15708700776793    7.87093277817900
C         8.98514427116583    7.92482608461583    7.78896823310535
C         7.91087714444494    7.49457854445245    7.02878850322328
C         7.98490618637292    6.29344583586769    6.33919362364444
C         9.12900708981717    5.52310460309475    6.41487352063230
C        11.25485173620286    3.36271248576638    7.93585351042429
C        12.31944020874255    2.51290723618375    8.23095140798717
C        12.08856777838376    1.27362564297634    8.79319898184436
C        10.79004981700566    0.86726100001858    9.06006030747389
C         9.73088882755148    1.71168898507226    8.77842310053599
C         9.95783396327742    2.95888212228677    8.22003913114073
C        15.20337687798053    5.26204052443225    2.72635808071261
C        15.78809939995835    6.04662285931613    3.71692765625780
C        17.13343625320352    6.35913384222240    3.64977000374771
C        17.90102960439722    5.88926570010666    2.59614139309356
C        17.32074109264772    5.11336072405314    1.60552362765662
C        15.97489070139197    4.79953149602669    1.66537062372230
C        13.28213375186194    3.36170405225529    1.89115608662112
C        12.66379598326450    3.24989884789574    0.65310826460740
C        12.57389808152784    2.01159001391004    0.03864386917319
C        13.10147103897243    0.88713132859676    0.64888946424921
C        13.74211793745517    0.99948619312240    1.87368274487215
C        13.83176614940815    2.23028841590341    2.49188411305585
C        12.67340760286641    6.18138914586693    1.82255727003460
C        13.36667019651531    7.32916784378288    1.45304109352029
C        12.72341579610956    8.32561427281722    0.73867278183827
C        11.38781225689245    8.19013588680949    0.39834498073436
C        10.68883831628321    7.05330490991053    0.77550476654062
C        11.32500184384203    6.05529494229099    1.48842243622274
H        10.19355440757406    3.98454620233687    3.66517661500499
H         8.94305375382819    1.92291314627843    3.16233601468136
H        11.87074836758265   -0.37225618558326    5.24540137264843
H        13.14459039356853    1.66974349998489    5.73326686405256
H         9.99888266455170    8.43193570348105    4.68550483847072
H        11.11118725155961    8.71283626848083    3.33922309935413
H        11.56678112707510    9.24015492483526    4.97095238647033
H        14.17553477199337    6.45439333186261    7.05500949698866
H        15.61322041846831    7.43312944110601    8.81686990043335
H        14.98306505474837    7.19916928921248   11.18948034481295
H        12.92610036306903    5.98972807996708   11.80828715098041
H        11.49869545647313    5.00081525098836   10.05398110003475
H        10.97709707560833    7.50300431837268    8.45406495634225
H         8.93245720334752    8.86659337791794    8.31579415685299
H         7.01844249796803    8.09981324474582    6.96430752201465
H         7.15250306042985    5.96449853429467    5.73426502879408
H         9.20969791517761    4.59841482905935    5.85689265761653
H        13.32822046269227    2.84371548215480    8.01549989101444
H        12.91760885054338    0.61975860618529    9.01956902997668
H        10.60528227893948   -0.10596206288315    9.48925608224960
H         8.71930318101325    1.40013240731822    8.99372732343874
H         9.12304561489830    3.61385725273669    8.01652218884233
H        15.17460737867176    6.41700224673287    4.53012488396355
H        17.58563884694667    6.96615995521427    4.42016024861447
H        18.95317483849061    6.12783060729989    2.54623091334002
H        17.91964635279692    4.75007247628597    0.78327523595984
H        15.52135828557716    4.19193440589294    0.89475608481726
H        12.25681109610062    4.12281021157795    0.16277331558286
H        12.08612084703589    1.92692800772423   -0.92142274192134
H        13.01672118626239   -0.07662416046939    0.16979474252089
H        14.16288767178670    0.12528619658887    2.34704120826911
H        14.32727246407650    2.33733159111712    3.44927189958568
H        14.40650546587134    7.44416808122180    1.72536885437005
H        13.26715655463594    9.21408213299169    0.45216783762080
H        10.88875066839959    8.97220961611242   -0.15493571596183
H         9.64460915030398    6.94990752822651    0.51884147794541
H        10.78022702930570    5.17406001229930    1.79946159909492

