49
CSD_code = HESRAB | q = 1 | S = 0 | Stoichiometry = C23H21FeN2O2(1+) | MND = 8
Fe        4.94539770783198    6.04790576034302   13.97902029137559
O         3.39975341627368    7.25069665601949   11.85921383753707
N         2.93889394614933    3.85859833708446   13.77359324882633
O         6.93632014270394    6.04259285414065   11.88730617911225
N         4.97087446833410    3.09707884698063   13.67789583577193
C         2.83447973730329    2.48084398437876   13.74352911610491
C         6.77445092967331    2.58149585788583   12.12239380569025
C         6.07540795854671    3.09209864782964   11.03623385989257
C         4.41126260182496    0.62994244047207   13.61005271964309
C         4.23549511773803    4.22249899818020   13.72553949966639
C         1.78543422531009    4.72902042057496   13.77777806692596
C         4.14545471129740    1.99086071934408   13.66910337268523
C         3.96149630653971    6.75089012650414   12.71340884907418
C         6.40087332550137    2.98883244822577   13.53051960067397
C         7.82386754873129    1.70006468201715   11.90439312265463
C         4.26257681920990    6.08711693387158   16.08008949166750
C         1.11611967208642    4.76871048810906   12.40723068902842
C         6.42389772966068    2.72615092857747    9.74854341521857
C         3.32347451450432   -0.21889290409298   13.64305713694119
C         6.41423856029017    6.65124467933505   15.52482784329644
C         8.17485297605579    1.33842572537434   10.61528742678093
C         6.15909790081713    5.96558748935206   12.71398527579544
C         5.60979972738417    5.61523251647774   16.03427356955136
C         1.74636039588746    1.61900483647320   13.78686622282387
C         4.24726041095399    7.40727332664961   15.59478559071416
C         2.01759072246520    0.26641263817875   13.73608222395752
C         7.47470892868699    1.84956660071212    9.53611070407356
C         5.56938373173028    7.74702089002198   15.20527422428582
H         3.43950137953153    5.57549257103996   16.55150884193750
H         3.48345242914078   -1.28417901848821   13.59754493226601
H         0.25597688178779    5.43039215737790   12.44017036088161
H         1.08103006364745    4.35875459905191   14.52733509893969
H         5.87526919726302    3.12798246110942    8.91082530976580
H         5.90106196738767    8.72565001023510   14.90179597345933
H         1.19982104125439   -0.43582913388854   13.76585259666772
H         5.41702539824566    0.25169476942088   13.53249678651239
H         8.37253970724277    1.29927091296429   12.74437335321165
H         3.40128166070353    8.07421842344160   15.59217270440022
H         2.11277577024501    5.73080117266083   14.06647669423525
H         0.77961253108244    3.77922123857842   12.11030973121853
H         8.99378688345512    0.65443762375098   10.45547999285063
H         0.73378332089728    1.98070395201099   13.85873227938340
H         7.74624555695151    1.56588191665139    8.53150828927670
H         5.96240893913328    4.69508157695561   16.47039917777248
H         5.25380733953289    3.78004288814945   11.19810900103472
H         7.48974138168957    6.64829621851505   15.46018366293612
H         1.80691213883348    5.13654527725862   11.65344528973874
H         6.77325394934222    2.24926284979181   14.24492947759961
H         6.84618822913864    3.95950260439360   13.77465522614499

