90
CSD_code = HESRIG | q = 0 | S = 0 | Stoichiometry = C44H35ClN2O5P2Ru | MND = 6
Ru       -5.30693350919744    0.01808750470453    8.20486725541490
Cl       -6.16134383862765    0.69633798231432   10.32163476681384
P        -3.23746681792402    0.91675963022793    8.80700424294945
P        -7.38300930679363   -0.96916848431015    7.79152451678288
O        -6.10063017845291    2.56207075701033    6.86252256838394
O        -4.73236391233863   -1.74013110290474    9.13464572057861
O        -3.79986367035252   -3.66300494030573    8.87646911849388
O        -2.20383600401521   -4.81411303513225    4.43984470970197
O        -2.45291006954001   -3.38803845564112    2.84802588690817
N        -4.17309161705425   -2.59526932392735    8.42033266484452
N        -2.57819870305581   -3.74328259041252    4.00441939800408
C        -5.78888189753296    1.56740266980372    7.35125973534475
C        -3.99627863948547   -2.26313007924539    7.07146627713119
C        -3.37543162913784   -3.18933948936376    6.23789253335238
C        -3.21009634091863   -2.83651107049692    4.91539159603125
C        -3.65847599478697   -1.59116060751528    4.45550213086514
C        -4.27255206164920   -0.68779241302487    5.29558307815048
C        -4.46831617033009   -0.99402064533710    6.66312844035405
C        -4.72839226331338    0.62145612642854    4.73491455979163
C        -2.26158662454194   -0.15855605830851    9.90483300458518
C        -2.93412776456205   -0.66404566699600   11.01687119389001
C        -2.27350725910689   -1.48443272011909   11.91137008566485
C        -0.93882156069987   -1.79719230614894   11.70942316509622
C        -0.26095158306683   -1.27314934607967   10.62134152388081
C        -0.91432980627621   -0.45208229046128    9.71876086388640
C        -2.17656331919727    1.24901592509256    7.36564067139481
C        -2.05908431621458    2.54250920510910    6.86612652234122
C        -1.34354391942347    2.77756238113031    5.70557518683145
C        -0.74731774603812    1.72614859891327    5.02931744859792
C        -0.86911043950344    0.43439514715760    5.51512314650419
C        -1.58507526467056    0.19448685731741    6.67266899947636
C        -3.16322866290017    2.49373564671147    9.71259342503390
C        -1.96269794279209    2.86988639752990   10.31180502599545
C        -1.87455910716504    4.07344970211888   10.98426117522272
C        -2.97885863555630    4.90783945946125   11.06439696749672
C        -4.17172348644515    4.53763879435778   10.46750741423482
C        -4.26672595883056    3.33407487702725    9.79057775455784
C        -7.56546759665896   -2.60992301861772    8.55894367232468
C        -8.01885923696239   -3.74412197972091    7.89303006021621
C        -8.11655490772818   -4.94541418298822    8.57394462506971
C        -7.77247195813814   -5.02162619168340    9.91318936823131
C        -7.34897104692484   -3.88665211886508   10.58614545804333
C        -7.24941807816287   -2.68266463180669    9.91558720221597
C        -7.71642022742424   -1.20954877507978    6.01808232887702
C        -7.02071638041247   -2.18252576718757    5.30252063635085
C        -7.19181855869151   -2.30016144409133    3.93623676234807
C        -8.04809157259936   -1.44054149189376    3.26731604363164
C        -8.73367311861158   -0.46367699696270    3.97001424400595
C        -8.56772174358431   -0.34387681016347    5.33839147406042
C        -8.89665455066638   -0.13899658864666    8.36667636059407
C       -10.07053055252406   -0.87641330442862    8.50281912144304
C       -11.23296127386090   -0.25302459878235    8.91526842241281
C       -11.23368346261238    1.10474046178953    9.19344103931207
C       -10.06957022404274    1.84120546553333    9.05339971850533
C        -8.90259932749050    1.22385664779061    8.63933999737734
H        -3.04064823145340   -4.14180008570188    6.62137007679818
H        -3.50806399030974   -1.35674814261517    3.41195926815434
H        -4.22893200960328    1.44292077310280    5.24700663172871
H        -5.80341164290512    0.73372379623752    4.87055896189829
H        -4.50298981892741    0.68455125011129    3.67389466747603
H        -3.97588733948554   -0.41092023038412   11.17179977363141
H        -2.80130779462200   -1.88301851459766   12.76462037524480
H        -0.42422734653259   -2.44626227536730   12.40214422931559
H         0.78332130942330   -1.50492872527501   10.47036318776708
H        -0.37452385191455   -0.04136823666066    8.87684060573121
H        -2.53132557722337    3.36272067557676    7.38908944093180
H        -1.25453934144867    3.78476287389496    5.32636254331828
H        -0.19067607297896    1.91129095239374    4.12317789693242
H        -0.40921766513077   -0.38841498364418    4.98813773103519
H        -1.68072055866213   -0.81702031773477    7.04432747529138
H        -1.10250255862455    2.21721778447040   10.25102307899221
H        -0.94344446767615    4.36068181242469   11.45036229280025
H        -2.90803020716612    5.84508754059376   11.59620791685856
H        -5.03374746080572    5.18455150609316   10.53190393519091
H        -5.20310208484362    3.03561184052256    9.34079453779086
H        -8.30061000032701   -3.69221992503320    6.85071030173676
H        -8.46160412040452   -5.82598138016778    8.05192252728616
H        -7.83923006896792   -5.96563307625410   10.43306203652687
H        -7.09151440863179   -3.94074205403731   11.63315245278931
H        -6.92342793464938   -1.79053950209526   10.43647068374444
H        -6.34708311237390   -2.85367457533080    5.81804773911743
H        -6.65247449536916   -3.06075011601390    3.39141308528951
H        -8.17791500385977   -1.53137215867308    2.19953853693549
H        -9.39844812951253    0.21045421180517    3.45058956841249
H        -9.09832010048247    0.42369258225088    5.88454731899757
H       -10.06985196902141   -1.93653395654763    8.28935122911521
H       -12.14029301594755   -0.82890039277828    9.02409347721173
H       -12.14215241615601    1.58672500531675    9.52304025680625
H       -10.06733826733162    2.89849117800484    9.27231635485904
H        -7.98899040753668    1.79407315535820    8.54643049469789

