67
CSD_code = HESSAA | q = 0 | S = 0 | Stoichiometry = C30H26N4O6Zn | MND = 6
Zn        7.95197648831478    7.95175452484155   -0.01019332563347
N         6.52707625971394    8.92431006387526    0.92176695147250
N         6.01339963396873    9.84171563521351    0.08166719067717
O         6.92459076788775    6.28225789074629    1.47345782242901
C         7.08176625530848    6.66972206543311    2.77739844514767
C         6.21720271584501    8.95622759138325    2.16608305195828
H         5.60983137462613    9.77927937087959    2.54343735638205
C         7.57322629921385    5.82373307639290    3.76256311737718
H         7.90931224759258    4.83035404656178    3.51347071582283
C         6.68073355853128    7.97857731824922    3.12251205496510
C         6.75470904359494    8.36383030726937    4.46322904016959
H         6.43580363688295    9.36058551258723    4.72967485449289
C         7.24948171396735    7.51689256919661    5.43372001964121
H         7.31134565203306    7.84458410500664    6.45972857437695
C         7.67158249959319    6.24868380306385    5.07667790686673
H         8.07729177384230    5.57770212763425    5.81792819863436
C         7.02657581210892    4.90356419822557    1.17439008718303
H         8.04676055582209    4.53159659841485    1.30165345739350
H         6.74664207437707    4.80881902455423    0.12691540826067
H         6.34014381589906    4.32114966901965    1.79651847745044
O         4.07655259754501   11.30528934841351   -0.81178038925643
H         4.62858008919740   10.81114481303720   -0.15600100607170
C         6.00734944115047   10.71492608090485   -2.13870337469430
C         6.64119378844586   10.78731721335987   -3.38045192141552
H         7.59768527523299   10.29766168219652   -3.48383430513970
C         6.66206510492233    9.93850906603221   -1.07300097019983
C         4.75765590916368   11.33740915054631   -1.96757082946432
O         7.78472431479614    9.39669213950097   -1.29617709450825
C         4.82910640923903   12.06801728758936   -4.26602770342138
H         4.36762593228160   12.59421237821255   -5.08868603014061
C         4.18636540224268   12.01298334360149   -3.04757046270876
H         3.22872138018591   12.48674505898478   -2.89761904223188
C         6.06249573140427   11.45272671145831   -4.43830060357844
H         6.56484412275323   11.49646726102107   -5.39241451166084
N         8.92730939114667    6.51721367586454   -0.92410741585516
N         9.83651161063245    6.00816114523543   -0.07228807724138
O         6.28832710424631    6.92161279758458   -1.49557949036191
C         6.68564993017122    7.06310853423487   -2.79833232179777
C         8.96203650366312    6.18859002781780   -2.16347513671485
H         9.78175998873301    5.56907936440518   -2.52810372397983
C         5.85017228612010    7.55133705343404   -3.79405812107016
H         4.85863831694180    7.89971771235711   -3.55469202812353
C         7.99309651120989    6.64719581170894   -3.13109244266178
C         8.38648647431564    6.70100460238590   -4.47040964812880
H         9.38173536814371    6.36974896649567   -4.72723722813030
C         7.54951771513209    7.19140449104581   -5.45170164212609
H         7.88331008250574    7.23727075082368   -6.47658928784032
C         6.28359455856034    7.63020367455302   -5.10676168132447
H         5.62075745060646    8.03342394775846   -5.85667981963252
C         4.90916830502931    7.04185075823952   -1.20597340466200
H         4.54912398452468    8.06460626659831   -1.34630417960799
H         4.80500663181486    6.77409640927616   -0.15618467734371
H         4.32286874304292    6.35531008667104   -1.82438347410242
O        11.26265429894956    4.06374391438703    0.86468223041898
H        10.78232646800182    4.61255822142820    0.19606937131150
C        10.69827962306029    6.02810509717028    2.15290567188109
C        10.77680647181532    6.68441986113040    3.38248961401580
H        10.30152599009297    7.65003040844731    3.46594317969466
C         9.93297315250482    6.67291803545892    1.07333437674900
C        11.30197038551398    4.76609145680726    2.00769429032836
O         9.39914528493008    7.80295674341411    1.27664615291698
C        12.02597642501991    4.86980632063432    4.30689648168167
H        12.54208209346399    4.41585600964305    5.14008542784549
C        11.96458430487198    4.20471049038758    3.10077433148484
H        12.42344382905710    3.23690182483584    2.97090898171291
C        11.43009846771973    6.11596877228928    4.45332588168501
H        11.47894457077431    6.63585573406138    5.39773664839427

