55
CSD_code = HESTIL | q = 0 | S = 0 | Stoichiometry = C18H32N2O2Pd | MND = 4
Pd        5.02091237009152   -0.00029447382974    0.00013801444085
O         5.70465432889860    1.90533498056644   -0.24030172528701
N         3.31667202458562    0.78707784277921    0.82156219574853
C         4.90646378577300    2.85928325880018   -0.49562210415156
C         3.55261762122861    2.91919164155916   -0.21259317884178
H         3.03366972565443    3.82252595751231   -0.49414855261039
C         2.83893027886116    1.96746173691284    0.54809613808884
C         5.52759617496567    4.08906918641860   -1.13780739733837
H         6.60785621654054    3.97460786805796   -1.17899732478861
H         5.28268302841518    4.98293007003146   -0.56936626113373
H         5.14154391883758    4.20945301696966   -2.14828002005872
C         1.49396858164122    2.41888092973445    1.07456107667389
H         1.55546975324811    2.62611330860189    2.14241454995979
H         0.73508703410506    1.65626508053873    0.90902286569019
H         1.18423111001933    3.33037602547919    0.57207342881500
C         2.77204230486261   -0.05202613900429    1.86837678984434
H         2.55923957842576   -1.04088788067917    1.44696030859805
H         1.85250617489424    0.35279101363225    2.30175608902084
C         3.83693762739709   -0.19765428605309    2.97094142061466
H         4.80213080303941   -0.45258313300498    2.48747147764689
H         3.96002097112187    0.76354735902291    3.47877188109217
C         3.47562558383475   -1.27803483715746    3.98535244143623
H         2.53962627567602   -1.01337754842085    4.48428331813670
H         3.31784068678792   -2.22195315045334    3.46008392495026
C         4.57454472825036   -1.45618759948407    5.02583284763856
H         4.30712444051652   -2.23295213224445    5.73874598966713
H         4.73778450878417   -0.53029630953496    5.57339625756461
H         5.50878954203038   -1.73679620554270    4.54397654927928
O         4.33771017180134   -1.90600760464163    0.23961173723392
N         6.72627973766541   -0.78655470999410   -0.82039270210712
C         5.13581137575685   -2.86020530028287    0.49410659910724
C         6.48993180601860   -2.91949349143977    0.21216651524497
H         7.00878360391264   -3.82301777698831    0.49327648935008
C         7.20414536914115   -1.96695337221304   -0.54693585027196
C         4.51491036178754   -4.08934987899907    1.13768136846784
H         3.43483042943199   -3.97415022501393    1.18045612364099
H         4.75834955990617   -4.98292396209731    0.56837960634067
H         4.90235890981629   -4.21050187054054    2.14750965722733
C         8.54846038598000   -2.41879213940398   -1.07471988307956
H         8.48665157961939   -2.62608094884258   -2.14259119850306
H         9.30750254473445   -1.65635399603283   -0.90938594258934
H         8.85818126951932   -3.33029266460750   -0.57230690315638
C         7.27056821724568    0.05228119784636   -1.86768419346879
H         7.48311954475742    1.04125469155046   -1.44645423606642
H         8.19024134975911   -0.35232355411449   -2.30097741376396
C         6.20610417905865    0.19789659523949   -2.97068634297635
H         5.24080832110183    0.45301649536389   -2.48755705546981
H         6.08306771784373   -0.76339019891280   -3.47835967560147
C         6.56760596262078    1.27804088410541   -3.98526878885983
H         7.50368824468604    1.01319914615337   -4.48392584153610
H         6.72540384116321    2.22194918545045   -3.46001306479162
C         5.46894393922389    1.45634725263404   -5.02598195231034
H         5.73659672672688    2.23304301431551   -5.73888690249489
H         5.30571989777766    0.53042018320076   -5.57347258055155
H         4.53465577445112    1.73707746705193   -4.54428856970870

