51
CSD_code = HESZEN | q = 0 | S = 0 | Stoichiometry = C24H21BrN4Pd | MND = 4
Pd        4.55476872127607    7.81855829548678   10.13502293751877
Br        2.82019763042116    9.21555805944739   10.98552365093586
N         5.55682443060638    8.18900315815332    6.14257792148913
H         6.16014714744513    7.84045252842531    5.41729738426408
N         4.61964133684584    8.43074864514417    8.14194002574895
N         5.06882923791503    6.73780994417796   11.84355914203097
N         6.36452432344595    5.17450846744770   12.74473483743607
H         7.07127784218352    4.46339988006115   12.82501204744381
C         5.53828135887818    7.77085085181285    7.43391788231245
C         6.05237514525040    5.86436044376522   11.61807400980576
C         6.33864660285934    6.76912040153675    8.10004728792387
C         7.35104235553726    5.95034321571033    7.61049447994728
H         7.63459772464663    6.01584056912918    6.56980056101017
C         4.60244083080294    9.16892375130869    6.00748784544340
C         3.76416200400908    7.27653302371821   13.93223345025711
H         3.13450789180462    8.03583289821453   13.49620000681404
C         4.72206470645346    6.61661833250426   13.16624820368984
C         4.01311520889517    9.31475351530747    7.28458252413326
C         6.61014333239669    5.77671253826722   10.28839065969207
C         8.00309019195727    5.04572930986868    8.45276598345394
C         7.62739640986074    4.96250709654448    9.79185924820414
H         8.11877009372393    4.26883493554907   10.45557099485937
C         3.65823685206882    6.91844447338995   15.25922141190441
H         2.92529335126082    7.41083622931948   15.87939738729878
C         5.96671549632938    6.68213537077001    9.44396507571561
C         3.19036960199215   10.84734604337474    5.14396390227750
H         2.84744940330299   11.46150479716083    4.32511726869629
C         8.51005833656014    3.28756630414952    6.76373984862240
H         7.71736148014832    2.66297986462610    7.17046148353782
H         9.27886504856817    2.64104845324239    6.34623185200217
H         8.09246513158529    3.88249817696589    5.95610020950443
C         5.54144599479369    5.62295777135868   13.75011970633417
C        10.20309768038666    5.07371349421406    7.27815440540162
H         9.82486567832094    5.68819781141123    6.46599466565019
H        11.01684980404634    4.46540331474881    6.88943723761974
H        10.60167472575345    5.73292953844705    8.04654459511967
C         2.99616164968877   10.24466771437123    7.48700733892671
H         2.54066412420365   10.36365560344680    8.45731174388952
C         9.10670267688266    4.17389927786126    7.86645897032795
C         4.19959698953587    9.93130032433553    4.92347453486078
H         4.65606807447709    9.81222684320903    3.95251498589469
C         5.42718311632350    5.27057306996427   15.08475440619973
H         6.05748553254027    4.51034554929720   15.52073667344426
C         2.60267380346238   10.99850311128796    6.40205596812049
H         1.81739179391614   11.72801511054022    6.52620011394086
C         4.47182321416039    5.93550585262380   15.82740588959762
H         4.35043903436136    5.68999039841782   16.87157859483038
C         9.75854432064097    3.25970390389849    8.90777087353453
H        10.21536685909489    3.83906877634766    9.70717857220617
H        10.54136391342035    2.67279080023303    8.43187588423631
H         9.03514178495677    2.56669215940676    9.33158531589154

