55
CSD_code = HETCRA | q = 0 | S = 0 | Stoichiometry = C21H30CrO3 | MND = 9
Cr        2.46909696766004    2.51321532216678    5.41494897130022
O         3.58473097733106    5.21617299677179    4.88674542339816
O         5.19448225825687    2.32406597700932    6.58421819950802
O         2.13715196500945    3.86858713507148    8.03851994253600
C         3.12946760750423    4.16171859614397    5.05048668780642
C         4.13535813381692    2.35323390685364    6.11144273042414
C         2.22508952989415    3.31907515066932    7.02045810387667
C         0.41739609926540    2.36138621341328    4.40654831502052
C         1.42459627309991    2.32978987486583    3.41281293999941
C         2.43414562214107    1.33855459847415    3.44781108095470
C         2.47774839261365    0.42508676672883    4.52782905578064
C         1.47721622469535    0.45060073842932    5.52829307776578
C         0.47143265639070    1.44534382613716    5.48391052018598
C        -0.69685456362663    3.38306806789943    4.33021498361361
C         1.34744971308721    3.27904073792080    2.23735402406814
C         3.47389049018869    1.27036774284521    2.34980408265406
C         3.52383961721218   -0.66767351354908    4.54257302869573
C         1.49618881373351   -0.56480166424519    6.65076430889919
C        -0.62651559350506    1.44721561671663    6.52470272305266
C        -0.33205158248767    4.68298699780365    5.05474152751693
C         0.50962903004036    2.68727712614640    1.09786865380281
C         4.70117444760830    2.12981923810278    2.67066000551328
C         3.03696329216541   -1.91074676010860    3.78862136289821
C         2.32028394596744   -0.07823391242508    7.84740371057018
C        -1.79439628611362    0.54796045208375    6.10283877823739
H        -1.61139925706877    2.98068469664773    4.76592260581598
H        -0.93147154407584    3.61216757009800    3.29069869575071
H         2.34675186447699    3.50725944540710    1.86907122304664
H         0.91486002855779    4.22968732682232    2.54612228307179
H         3.04880850998792    1.60216451875139    1.40261517025020
H         3.79483758236586    0.24039691821880    2.19386716802209
H         3.77181257333243   -0.94165216450950    5.56706651189101
H         4.44967439322633   -0.31263624372603    4.09212495093410
H         1.90751307942824   -1.51133026569134    6.30001739577360
H         0.48163421275185   -0.78063585836810    6.98550669953966
H        -0.99246670641044    2.46002406872403    6.68743528937160
H        -0.23890138491081    1.10815859543970    7.48444769076327
H        -1.15255844920599    5.39401382491807    4.98265654178645
H         0.55787587608182    5.13354997330926    4.62161175067574
H        -0.12360166215188    4.49760273811763    6.10582162614403
H         0.46665027676428    3.38320315337774    0.26310288075972
H        -0.50757965412778    2.48137951668104    1.42519202914904
H         0.93629616987828    1.75145487896857    0.74229969497341
H         5.42761079152307    2.06038665862899    1.86352577235137
H         5.17455158591561    1.80355806822613    3.59372725899206
H         4.42260431173757    3.17311440556335    2.79942987053203
H         3.80039153080463   -2.68518816052389    3.80854176867956
H         2.81332762163505   -1.67644559117067    2.74969257278651
H         2.13032724945150   -2.31149669839230    4.23772019096493
H         2.31523696293343   -0.82900497468056    8.63499108954370
H         1.91556230655787    0.84848719297259    8.24742316790881
H         3.35048005198940    0.11529690309821    7.55782672422751
H        -2.57210019760467    0.56136539690793    6.86309961448164
H        -1.46743008397203   -0.48079886875162    5.96503010733046
H        -2.22811207182078    0.88372174300971    5.16293941640288

