51
CSD_code = HETFER | q = 0 | S = 0 | Stoichiometry = C19H29OSiTa | MND = 12
Ta        8.19187144582937    2.75554419103090    6.81916887884136
Si        6.57450427866050    1.74764851623889    8.63920859689044
O         8.48315543219395    5.43733963252257    5.87884400585176
C         6.29051472883583    2.27623987310739    3.73993276446911
C         5.28682817249209    3.07485572956117    4.40199301353821
C         5.76226846977664    4.32118101419343    4.59108666611855
C         7.18137498569058    4.37410218868929    4.12942703954552
C         7.38605207919456    3.03112657215181    3.52394899425222
C        10.77912617656721    0.74521333617620    7.18221967532937
C        10.07309296762009    0.07091389798586    6.19222461179301
C        10.01370592662322    0.89818817933889    5.05003316507984
C        10.70300057766850    2.08615901006270    5.33756222122330
C        11.16101070191306    2.00257426460084    6.66909703730343
C         7.95521367784774    4.43839884649587    5.46312792561239
C         7.28564168655013    2.27620765015036   10.36547086554143
C         6.48915086962629    1.65548186197107   11.51384175364490
C         8.75789383030276    1.88551178783633   10.51489774998454
C         7.17443177875742    3.80002732287177   10.46935894337070
C         6.19193458439626   -0.12567613284463    8.31633320856194
C         7.34369250973232   -1.02724950852180    8.75750727654923
C         4.91327431328997   -0.54947335260087    9.04111124195242
C         5.97226715044411   -0.30989114155443    6.81134144904084
H         5.23967567660482    2.40991559684347    8.55778503852272
H         6.14111112119070    1.25733897305256    3.42836361690565
H         4.30093825896170    2.72299554800436    4.65050464207752
H         5.26384913033079    5.15629545313291    5.04870919483259
H         7.45243964858030    5.22945115601276    3.51231316248179
H         8.29961659208355    2.74288707119746    3.03726111251427
H        11.03218353962680    0.36359088683130    8.15844230683453
H         9.68495134114563   -0.93295107677392    6.25454421077869
H         9.59759125405126    0.61772265898955    4.09528596745444
H        10.93604842664108    2.87471099460024    4.63947525559860
H        11.79800858240741    2.72069636767616    7.16345219409711
H         6.83862594649879    2.04317513971441   12.47072699666334
H         6.60618663721064    0.57473314295464   11.53025947335905
H         5.43061308911690    1.88785787806045   11.42118184230263
H         9.37923920902898    2.36671229357861    9.75627878969737
H         8.89218672868895    0.80966979543653   10.43348483741248
H         9.12807393188868    2.19472962375168   11.49285936238325
H         7.56543503053983    4.14072231995230   11.42778635263131
H         6.13687899802494    4.11845561873372   10.39728174012020
H         7.74081713000659    4.29941642575230    9.68024828713374
H         7.14676948090322   -2.05959626137679    8.46793056278866
H         7.46470331260625   -1.00528743370711    9.83838649435464
H         8.27973333460697   -0.71877397069719    8.29489868810231
H         4.06903423231206    0.05547414716645    8.71910645980911
H         5.01550592041765   -0.44607289999782   10.11765228734381
H         4.68563400125355   -1.59273162834134    8.82316349743498
H         6.89019648878907   -0.12519599503131    6.25062393610174
H         5.65038656384179   -1.33018239284016    6.60367741803392
H         5.20216004863488    0.36781682771510    6.44627918771930

