62
CSD_code = HETHIX | q = 0 | S = 0 | Stoichiometry = C31H27ClP2Ru | MND = 8
Ru        3.01080106503174    4.46298779616208    3.82670734838357
Cl        1.04769473131841    4.28383304987537    2.44443136402756
P         3.30810567124851    6.14368065895037    2.36279213864198
P         3.94291630138560    3.23381015745473    2.19540397221462
C         1.96404202962744    3.86383097845757    5.73654757131493
C         3.16969971767685    3.14067447832825    5.63724576321230
C         4.24818194027809    4.08120225184007    5.63745007718679
C         3.68782295905856    5.37733252156104    5.74018859327797
C         2.27049942564929    5.25029380127229    5.77438274788290
C         3.56277193410551    5.44794638846936    0.69758588213003
C         3.88746460411260    4.16021120007444    0.62763042567068
C         3.29341627548617    1.61333535079638    1.68921461713835
C         2.15968932187777    1.11158651072244    2.31387040569679
C         1.66002138854150   -0.12528646148986    1.94582012301849
C         2.29301903576314   -0.86058022570978    0.95770291034462
C         3.42933329040293   -0.36337535952698    0.33693505476973
C         3.93397831892620    0.87003227816728    0.70133207711133
C         5.71594154091680    2.85852231135467    2.34852316599568
C         6.08342985331677    1.76970368055947    3.13460725517508
C         7.41784605857939    1.50420025398037    3.37421889465085
C         8.39440800119310    2.33057223955087    2.83940271745700
C         8.03260324806870    3.42277460996486    2.06763115939300
C         6.69755889068438    3.69138298252737    1.82368864406423
C         2.02505221888166    7.39918523082098    2.12742051107786
C         1.95204931552785    8.43211982429038    3.05871964173189
C         0.93729322379013    9.36592861827934    2.97768548860598
C        -0.01398905324822    9.26584759996485    1.97399087703413
C         0.04610549909006    8.22823765362496    1.05813045173760
C         1.05879232072801    7.28888177351297    1.13401497082630
C         4.82876273688611    7.15053232689653    2.43128882637962
C         5.90334544550978    6.65359706139507    3.15788671174836
C         7.10153261123702    7.34305391585819    3.18893845058699
C         7.22937961037123    8.53354153831178    2.49190845002861
C         6.16088589847439    9.02988120612232    1.76125468332815
C         4.96256341121301    8.34055810434369    1.72434070584285
H         0.97354739314190    3.43720957404736    5.83178295217507
H         3.27547341978427    2.06602261341216    5.71076196623254
H         5.29851946605105    3.82995237646619    5.71950323993791
H         4.24181964578520    6.29715262156609    5.88112648876125
H         1.56786881490584    6.04598716431381    5.98417277976555
H         3.50923836352198    6.10710342065463   -0.16318903069027
H         4.09368717209671    3.63846889613932   -0.30124262717992
H         1.66848207165361    1.70917559552310    3.07139403744074
H         0.77517878950406   -0.51513022980228    2.42721590965341
H         1.90252226262884   -1.82553907970489    0.66861055143927
H         3.92222009886224   -0.94173922908087   -0.43147450855547
H         4.82910663185534    1.25826002006786    0.23233944704173
H         5.30971016982149    1.13510405346532    3.54826787755676
H         7.70003291562676    0.65519177420782    3.98013775217283
H         9.43770687172682    2.12379794467945    3.02776381907936
H         8.79341404751413    4.06981188067506    1.65521183755296
H         6.41085381439998    4.54837539756198    1.22881781844837
H         2.70036138431677    8.49103839392217    3.84037716931617
H         0.88140501541952   10.16940857401727    3.69826359576655
H        -0.81004564080671    9.99365529509271    1.91282936658842
H        -0.70590343451354    8.14386843874172    0.28735294043434
H         1.09175730679782    6.45648359904612    0.44581451313277
H         5.78224494764322    5.71814224447514    3.69306068907885
H         7.93489465320495    6.95382217587424    3.75585263502370
H         8.16265203394111    9.07687009820897    2.51715720850917
H         6.26458588696556    9.95668887482075    1.21580073313039
H         4.12654705648477    8.72468120490625    1.15569816053668

