57
CSD_code = HETLEX | q = 0 | S = 0 | Stoichiometry = C29H25NiPSe | MND = 7
Ni        3.49400979781966    4.46583425961874    3.12031998285818
Se        4.35706945927705    3.29777509180356    4.94119136204954
P         3.88425447013707    2.80636607127932    1.81366307741449
C         1.58984172316531    5.44652490697549    2.70990227034797
C         2.66075564413826    5.97048379094204    1.90394257439435
C         3.60485462020829    6.58752117438588    2.74866098560498
C         3.22229762560876    6.29990409217076    4.06933900037610
C         1.93722585896891    5.63556525105867    4.03771432871374
C         6.21038250923179    3.66238107425461    4.70513897863721
C         6.60560611089007    4.60625438409984    3.76644937410474
C         7.94424881087331    4.88820587216004    3.58105626430458
C         8.90140504141466    4.22648046198387    4.33133601165696
C         8.50963128319843    3.28253164700862    5.26775085751171
C         7.17186174479431    2.99847664303535    5.45935604694120
C         5.57496092827001    2.14728174258685    1.86267878414549
C         6.57919216172474    2.86951439801582    1.22192215862742
C         7.89593878478685    2.46175072660165    1.31456059280023
C         8.22229519813540    1.34830436117764    2.07113192110119
C         7.23048959755752    0.64567503311671    2.73431700776637
C         5.90895551139032    1.04203263244108    2.63566467053987
C         2.81965150584666    1.39484468910039    2.25115836763362
C         2.92945772089784    0.17911153870082    1.58374098657040
C         2.07176614379642   -0.85639127953052    1.90340319623983
C         1.09808751105400   -0.68109314831141    2.87526043642787
C         0.97794200481397    0.53311807872317    3.53039037375735
C         1.83660716529572    1.57072686484196    3.21608557702327
C         3.47873978665241    2.85876175471914    0.02840102633499
C         4.31721892558405    2.41177035453030   -0.98449892633390
C         3.88545888525038    2.43859439048793   -2.29998965970487
C         2.61911544586606    2.90108002558719   -2.61400199491621
C         1.77156418635353    3.33036159082671   -1.60484419581342
C         2.20036980330726    3.30737926655877   -0.29234383754159
H         0.64695321000566    5.07928621360652    2.33496754124726
H         2.63276386205798    6.05935385675334    0.82702710534170
H         4.43428123602401    7.20233765839897    2.43612081096140
H         3.68796706820930    6.68423666889638    4.96553460298751
H         1.32936518395137    5.43256917826780    4.90600579969261
H         5.83955033967802    5.11244511331815    3.17080291427880
H         8.24256282669128    5.62541982034656    2.84880499223440
H         9.94926015779288    4.44556108141824    4.18786725566415
H         9.25517191893804    2.76392711830554    5.85340974213926
H         6.85769652305382    2.26545127066589    6.18814911570225
H         6.31837840782798    3.75899339079078    0.66195274900012
H         8.67069204695442    3.02149593593686    0.81165876803432
H         9.25295441988114    1.03774914974006    2.15516411568205
H         7.48783705662114   -0.20998588791411    3.34045549768695
H         5.13754640459245    0.50908121789404    3.17232092023930
H         3.68708293216852    0.05059189348426    0.82271926106859
H         2.15992103745141   -1.80410072109894    1.39245158985688
H         0.43110130392496   -1.49453815200630    3.11998175229330
H         0.21807075342188    0.66977379972924    4.28523880462664
H         1.76065697593115    2.53164623464473    3.72417662128927
H         5.30383261194048    2.03847037668647   -0.75191727854051
H         4.54367630237840    2.09258732838978   -3.08371055566692
H         2.29049857832080    2.92268555094127   -3.64246152875617
H         0.77836862141344    3.68182812128441   -1.84381508993207
H         1.54375425523612    3.63160604150899    0.50423689368951

