79
CSD_code = HETMAU | q = 0 | S = 0 | Stoichiometry = C26H46N3PSi2W | MND = 5
W        -4.23404641513489    1.47006030744816    0.61220546351179
P        -6.29322282667279    2.43954367605362    1.64021049764442
Si       -2.14885125482881   -0.20357088003874   -1.58914140798264
Si       -3.39259773205410   -0.43003162842918    3.25440740303389
N        -4.88588201138133    2.23292749051266   -0.90174277581023
N        -3.27774590346856   -0.10058829170397   -0.28310656659165
N        -4.53864243221154    0.09491703779938    2.09109096053625
C        -5.81912007514196    2.37575667400439   -1.84468012849087
C        -6.60088545430995    1.25490752053231   -2.22130587892198
C        -7.59348902603143    1.36644273927544   -3.16770445370417
C        -7.85305323005482    2.58541009258823   -3.77964857730903
C        -7.09135390244074    3.69280783894847   -3.43687019077147
C        -6.09120326722631    3.60015240457222   -2.49365768372667
C        -4.36733518775179   -0.92093883258821   -0.10938133128537
C        -4.83985299342639   -1.86363653665806   -1.02647139375927
C        -5.93172113874727   -2.66427211311097   -0.73318511001651
C        -6.57119421002465   -2.56699823973950    0.49016662489788
C        -6.11490353825002   -1.65718568010259    1.43331799222429
C        -5.04075628553272   -0.81987471843175    1.15687718103375
C        -3.00631418721242    2.84221273009662    1.36401881277036
C        -2.61257571606593    4.28314603654783    1.15745301478994
C        -3.10704749499861    5.09806662056603    2.36860141648101
C        -3.25505420904832    4.83375391032970   -0.11842695183296
C        -1.08578928412770    4.44267000561197    1.06686674931983
C        -0.89742843362040    1.17423302120460   -1.16433069460413
C        -2.93732365851619    0.20533834789241   -3.29180748188854
C        -1.26790295323524   -1.90243734473015   -1.65562750152269
C        -3.38354370891489    0.89323730619161    4.64039437190551
C        -1.63356787045041   -0.60173467999483    2.49238583468230
C        -3.86670206911505   -2.11930702642193    4.01570050217308
C        -7.75143226596682    1.43859927172280    1.12138164349028
C        -6.53232328260138    2.44124194224160    3.46497365741768
C        -6.94168162732787    4.10374584667579    1.19059957655834
H        -6.38201171471170    0.30121038514837   -1.74950528289683
H        -8.17509255468857    0.49486359073344   -3.43646112593140
H        -8.63294844805600    2.66725473004437   -4.52157032389049
H        -7.28178485909594    4.64278587213735   -3.91741232615590
H        -5.49177822604187    4.46187603501938   -2.23684410379274
H        -4.33673577124568   -1.96471307735942   -1.97585292814965
H        -6.27759830656042   -3.37724627761618   -1.46748557279929
H        -7.41185014082422   -3.20466453735024    0.71996975757218
H        -6.57272560600860   -1.60200097882979    2.41324586325510
H        -2.44032667348041    2.44723815105555    2.23206857678228
H        -2.92073718541276    6.16023116041019    2.22055789432110
H        -2.59461966825718    4.78230281793286    3.27515932815448
H        -4.17599883261078    4.94237491165254    2.50782911450609
H        -2.93505201316384    4.24517700477628   -0.97729130395950
H        -2.97644488309324    5.87477493188021   -0.27537308302037
H        -4.33828118968577    4.75739315929119   -0.04276836391642
H        -0.81901688147994    5.49468925907108    0.97955797425978
H        -0.69887852324370    3.91713480360024    0.19797053626809
H        -0.60330690145218    4.03919985389272    1.95501732721425
H        -0.38056358678030    1.52957488827953   -2.04821384248583
H        -0.14382430906105    0.84286769459997   -0.45774097505183
H        -1.44300616713305    2.00805481873869   -0.71973984039884
H        -3.43742767723956   -0.64720975990461   -3.74197489700161
H        -2.19028943933522    0.55156687256696   -3.99903163367409
H        -3.67563202285995    0.99634006584369   -3.17593116553175
H        -0.57599438438439   -1.93773389901993   -2.49032719875102
H        -1.96700430119872   -2.72443141062194   -1.77116132551621
H        -0.69850737803552   -2.08410257754566   -0.74931196089941
H        -2.43462599435828    0.87363386843228    5.16412829207642
H        -4.15936647493143    0.70669227794521    5.37566166253574
H        -3.52930408432629    1.89493409781242    4.24744397038987
H        -0.85051425603234   -0.54494052553622    3.24292707790903
H        -1.45966869104542    0.18388709390675    1.75584052406817
H        -1.52574006437918   -1.55403281101737    1.97907624055785
H        -4.01705711690933   -2.86748177563857    3.24320311277809
H        -4.78206999970299   -2.05895445200546    4.59625913480280
H        -3.08367852143801   -2.47624521076935    4.67595049590026
H        -7.60702669789858    0.39671433307658    1.40441714375682
H        -7.84729342019879    1.49395526754514    0.03628767254036
H        -8.66475037575844    1.81558612238118    1.58216474384248
H        -6.28566312136983    1.45189969627789    3.84590549963876
H        -7.55976377521971    2.69438842296353    3.72368002627597
H        -5.85522584804733    3.16306814716661    3.91756155445990
H        -6.98411419524889    4.17751959345977    0.10475711005177
H        -6.28115708537995    4.88035793906881    1.56866405459701
H        -7.93989898674601    4.24561457756660    1.60372899109026

