25
CSD_code = HETQAZ | q = 0 | S = 0 | Stoichiometry = C10H8FeO5S | MND = 8
Fe        0.42302060409376    6.75986886688843    9.77296901152873
S         2.25186585197339    5.46430520913874    9.35875592997605
O         4.34381620995262    4.63382756608633    7.37866288508951
O         2.74642364661917    7.52758275501666    7.90370730360103
O         1.77914495310470    9.30647958496628    9.95254751343664
C        -1.16940753389796    7.34703411323586   11.17523424952124
H        -1.52102896671889    8.34102747710157   11.40198904799639
C         1.32586261608421    8.26933540762086    9.83579126515022
O         5.54505677747074    6.40266979481479    8.06696079402805
C        -1.72765245790113    6.47100204340900   10.20925105527044
H        -2.55765536259430    6.69701193037488    9.55958938540092
O        -0.08118009450568    7.43305631770517    7.00785112563486
C        -1.08742635154917    5.21886270179374   10.33323453354529
H        -1.35615144431388    4.31591662737533    9.81281551740361
C         5.54273957868328    3.95532758698433    7.01731280982297
H         5.23527378836697    2.99573277036470    6.61092383223354
H         6.17536342357153    3.81841362841165    7.89616184347300
H         6.09323272307172    4.53277150228696    6.27228378730230
C        -0.20765376620224    6.61729904108973   11.92258138282849
H         0.30823283955608    6.96908985627662   12.79932757765747
C         4.49521185635359    5.84794436011212    7.89485284386902
C         0.17157958740011    7.14596611929712    8.08021339115359
C         3.14872200066872    6.44252471012493    8.27605828819577
C        -0.16379389744439    5.30783515197143   11.40793276354068
H         0.42230341815416    4.49291487755138   11.79879186233912

