41
CSD_code = HETYUA | q = 0 | S = 0 | Stoichiometry = C15H22FeO3 | MND = 7
Fe       -0.15974560807952    4.41306171682177    2.74528067039506
O         1.59654671798182    6.69728305367139    2.39561975062983
O         1.52212362640228    3.70609336501681    0.48768758564584
O         1.34237787368610    3.03000981202618    4.86691664557681
C         0.82904832876274    5.85249687049001    2.54913238289862
C         0.78295431253134    3.95054359770300    1.33627181221515
C         0.69680539083595    3.54787787353910    4.07517252368415
C        -0.60615323334267    0.67578117881668    2.40130239840011
C        -1.64204294056396    1.70549984647587    0.38161797865995
C        -3.09656121116686    0.76754604521634    2.18255452693456
C        -1.78408585179635    1.51355274329578    1.89167115904882
C        -1.81274381834032    2.82161477544378    2.66089305888188
C        -2.26282262109430    4.03295647975179    2.09559898936691
C        -2.23700977258932    5.22723363032562    2.85473419775894
C        -1.76143850248683    5.21502969546304    4.18252721250267
C        -1.67901499493155    6.46475434432166    5.03962822357723
C        -1.49710397587372    7.74449007565577    4.22332840341482
C        -0.49686293560298    6.31535689495972    6.00355996991256
C        -2.98156527469181    6.56615952121761    5.85015442852449
H         0.33261865917524    1.17810285561974    2.17359791016627
H        -0.66711314536291    0.53945915237236    3.47872095145539
H        -0.60083210127818   -0.30489193433762    1.93099442009198
H        -0.79593272318780    2.34913567894251    0.15486715010916
H        -1.47749185065946    0.74341374389985   -0.09815299856418
H        -2.54033319608738    2.14220571624061   -0.04836589508893
H        -3.19121764930879    0.54981104732625    3.24424732907192
H        -3.95170060560939    1.36667046897240    1.87657837749246
H        -3.12151491806894   -0.17327088750032    1.63761735740255
H        -2.04776317540905    2.64060259895251    3.70747662309938
H        -2.58402161249151    4.08052849640179    1.06232913914390
H        -2.53909945641149    6.15231948645956    2.37925803708742
H        -2.01171766776146    4.35159661938428    4.79504954762789
H        -0.65876840800895    7.64609561629706    3.53841678264135
H        -2.39138659944404    7.98037804158367    3.65138788767237
H        -1.29790049195054    8.58102864347721    4.88922034476634
H         0.43571165367886    6.27206391348860    5.44326969973850
H        -0.45305921647512    7.15737755034791    6.69058324229612
H        -0.58715550615426    5.40131243834204    6.58627633999402
H        -3.10324655310584    5.70051463798460    6.49779145562887
H        -2.96754072882641    7.45838337005793    6.47181211245161
H        -3.84104021689236    6.62192122547430    5.18527226768753

