41
CSD_code = HETZAH | q = 0 | S = 0 | Stoichiometry = C15H22O3Ru | MND = 7
Ru       -0.19552305726065    4.40809060458213    2.70413834986574
O         1.47621889448523    3.58732365977672    0.32852214307684
O         1.52434017911795    6.87402572887466    2.43261125661504
O         1.32937427528327    2.96831374787724    4.91319211998419
C         0.76769806794325    3.87587030554313    1.18586830584431
C         0.79775142380410    5.99027927865845    2.53974274735239
C         0.72234102964238    3.49968981763263    4.10053681472641
C        -0.60886052549577    6.27385686872612    6.02215344763355
C        -1.58429411573199    7.71596172747144    4.23706696582775
C        -3.08967249459030    6.45610261669202    5.77201911516488
C        -1.75432532482962    6.40704036754612    5.01150191943053
C        -1.76769904175036    5.16478022178357    4.12228538145676
C        -2.27375906536953    5.22319588488107    2.78517843157792
C        -2.28932186039827    4.03246095746170    2.02249623018077
C        -1.79795851916195    2.83307914837882    2.62860780214321
C        -1.81596864606248    1.50591608158493    1.87183948859420
C        -1.67429470724566    1.66045877060645    0.35589416656482
C        -0.67081172922240    0.62888045494299    2.39223296230104
C        -3.15417006673376    0.81087179600760    2.17182410913011
H         0.35086729732224    6.27845197874568    5.50565258779706
H        -0.62524884562218    7.09880820456926    6.73092048333534
H        -0.69326423999316    5.34251636730588    6.57860714464466
H        -0.72731294618566    7.66768477691800    3.56937309195921
H        -2.47135759924973    7.94951169179426    3.65235341018875
H        -1.42262431989299    8.53497530166543    4.93437198447635
H        -3.20618493073221    5.58143690138677    6.40869054722628
H        -3.13171301964135    7.34242352017529    6.40088481651726
H        -3.92523462693213    6.48802171292418    5.07538938744447
H        -2.12428748632466    4.31901569260128    4.71846832551379
H        -2.64077767768348    6.14835135767448    2.34757879297721
H        -2.66811336569938    4.05019612898090    1.00353797799098
H        -2.14552691880281    2.65144650490058    3.65039685192580
H        -0.81436496458126    2.27635245892420    0.10328915351633
H        -1.53416351880989    0.68273831452387   -0.09971599773427
H        -2.56493739441439    2.10519502347371   -0.08264872828798
H         0.29024174005520    1.08350063806284    2.15229379952700
H        -0.73463110934007    0.51413747172042    3.47246658551180
H        -0.70928953198547   -0.35967369733890    1.94004151768647
H        -3.25167541020400    0.59880998797820    3.23459941447566
H        -3.98838336305466    1.44078201046383    1.86889483680125
H        -3.21878248465137   -0.12998038647824    1.63014225903526

