161
CSD_code = HEVDIY | q = 0 | S = 0 | Stoichiometry = C61H88CrN4O3P2Si2 | MND = 5
Cr        4.36056875449506    1.45734450049718    4.89891402018458
O         2.58634078585829    0.18011762927713    2.82233762017956
O         6.66231857625155    0.06591232324482    3.57022663209961
O         6.26033526513743    2.65699416912880    6.91224689417105
P         3.55287907481831    0.32336154260810    6.60393683968935
P         3.85885548878964    3.36382607690633    3.91973419290406
Si        0.95430079417802   -2.62862397138702    8.71023614916870
Si        3.95553283900875    7.76354090490782    3.18677137565539
N         2.27784638620230   -0.78807791970139    6.82753188945373
N         4.14362869145331   -0.12796188717527    8.14383385004658
N         4.20581967453388    5.00945539632017    4.20526925053507
N         3.27932261417343    3.81010241370194    2.37471352916699
C         3.23772502322735    0.68256742696549    3.64507826256763
C         5.77568550466248    0.61091189647993    4.09120614042812
C         5.50405306459887    2.21688129017006    6.14542068508909
C         2.26292907249232   -1.43213827395462    8.06585276030209
C         3.82832306527630    5.88113274509680    3.18257292037266
C         0.31105888479161   -0.23327242652978    5.52578868543501
C         1.39345794468800   -1.08385782818057    5.76773480413812
C         1.63976867435169   -2.19904360471559    4.95812050034347
C         5.63479772470388    1.07215996414979    9.65149225996622
C         5.44968272563988    0.13385160731961    8.63301663767535
C         6.52423813169867   -0.61037989118313    8.12690167644221
C         4.23552401084024    5.57040596032728    6.56233346829751
C         4.92270250689633    5.39893215819975    5.35738693421869
C         6.31024975509456    5.56669845413681    5.27864232082741
C         1.76846182060139    2.61104329011034    0.88577996620489
C         3.06978954442295    2.91939345007693    1.28977779234647
C         4.18284888471807    2.41778200493939    0.60100408432046
C         3.32516234813525   -1.03310696631322    8.79228227370597
H         3.58268455898944   -1.36098652411961    9.78235933089374
C         3.30014104788468    5.17545231249885    2.16341912192850
H         2.92630339277810    5.57114783090359    1.23724185855582
C         0.77437643580583   -2.44951453420631    3.90314322153494
H         0.95405493086847   -3.28959682658220    3.25037697899840
C        -0.31394222577434   -1.63169423235254    3.66815784959176
H        -0.97985031840775   -1.84393324282019    2.84462947811447
C        -0.54430132607326   -0.53508634577131    4.47500548208619
H        -1.39707106080687    0.09713143513733    4.27851292049590
C         7.78367321807018   -0.40024669454409    8.66945664373868
H         8.62555266408389   -0.96441725028204    8.30190614166960
C         7.97682730879994    0.51494294625292    9.68602653349480
H         8.96355912394812    0.65934733882786   10.10119826274565
C         6.91013218306195    1.24243775494117   10.17267721602592
H         7.07331294798919    1.95074761346169   10.96974985428944
C         6.99650746269518    5.91716372944636    6.43224162218088
H         8.06910970161844    6.03056610231384    6.40440059511133
C         6.32653480088458    6.11602077958455    7.62394533554506
H         6.87616831694006    6.39331397192596    8.51146013392048
C         4.95753593607901    5.94701789222721    7.68654157622853
H         4.44696765351070    6.10332916531632    8.62486850892849
C         3.96254307110690    1.60871519902580   -0.50426006437752
H         4.80144670750183    1.21462352194047   -1.05472014389019
C         2.68048934548725    1.30722790458379   -0.92106749933464
H         2.52884574054559    0.68138431877556   -1.78834504247641
C         1.59428222137225    1.80680687229881   -0.23224399399768
H         0.59843891034495    1.56790409051686   -0.57100725800775
C         0.07171979602003    0.99526392131713    6.37240366680357
H         0.85835261851887    1.06161367495875    7.13287691922515
C         2.84151168308030   -3.08538397417242    5.19087411283558
H         3.25982675819238   -2.86155788650373    6.17664608142406
C         4.47924079335932    1.87664338711817   10.19704668095054
H         3.63138275823290    1.77908447734370    9.50930574834753
C         6.30790807017196   -1.66336916735008    7.06551004182654
H         5.45204068688696   -1.36116447461079    6.44674409088177
C         2.74472920649700    5.34252043847540    6.65663166506600
H         2.36924821295123    5.03570228648575    5.67356613568807
C         7.05473470822795    5.32872779381380    3.98517250622911
H         6.33229399144483    5.28709984745959    3.16469618390728
C         0.56869391436860    3.15130307702280    1.62655870541764
H         0.90366918370275    3.53949485676885    2.59536280128819
C         5.58614702423896    2.80153058853558    1.00834225634905
H         5.59461094656541    2.98261628472349    2.09180162297762
C        -0.45764396971748   -3.04671913937594    7.50376269017646
H        -1.17538999089435   -3.70187319907258    7.98931549816715
H        -0.10111653673537   -3.55152873067884    6.61294066314035
H        -0.99080692725122   -2.16219171828483    7.17319326726066
C         1.85921612421794   -4.23704715566524    9.20412361607444
H         1.16456482131502   -4.96902807279528    9.60433925582696
H         2.60858024791503   -4.04793562413795    9.96673459227308
H         2.36425241576683   -4.69243009788214    8.35783234149082
C         0.19914164853216   -1.82469454348920   10.27186394910293
H        -0.28802647661214   -0.88129375467816   10.04367990817910
H         0.96187754332355   -1.62305442433537   11.01751882205797
H        -0.54129373979084   -2.47412432491532   10.72846039934796
C         4.73909129296804    8.54094899763725    4.73776757251964
H         5.77273772580836    8.24145325817963    4.86980844721819
H         4.21275624067564    8.26709075705671    5.64543843270432
H         4.71708747375738    9.62414578996871    4.65816180498605
C         2.17451243173464    8.43396141535638    3.00446241937794
H         1.54462614295125    8.13689985868120    3.83774491260677
H         1.70687847206006    8.06417470400170    2.09727162948725
H         2.16678616734414    9.51850706638247    2.95784793633442
C         4.97536797231708    8.25976795199604    1.64929580386962
H         5.07537370792675    9.33841971059146    1.57833774760894
H         4.50085291689279    7.91575575089983    0.73528545581082
H         5.97564869601047    7.83853452643836    1.67480669797432
C         0.14827669837837    2.25379585981280    5.50742887787879
H         1.12312660775368    2.31084751097893    5.01649306405733
H         0.01366875813155    3.14278083027916    6.11914936435730
H        -0.62488264310311    2.24578824001010    4.74541684470617
C        -1.27369864242053    0.91812128411961    7.09720189561632
H        -2.09572457008061    0.85101771355721    6.38839541276209
H        -1.42046223734894    1.80732753452826    7.70723249136386
H        -1.30801177215311    0.04711466083139    7.74796139742716
C         3.91204690238428   -2.78513974560361    4.13772814205859
H         3.52236048997959   -2.95636890944997    3.13680303388006
H         4.77840271583663   -3.42607010232196    4.28773385518862
H         4.23340412123549   -1.74473686761684    4.20337510035640
C         2.48304244616173   -4.57256190284188    5.16967031204457
H         1.67141873141813   -4.78645609330200    5.86148616184321
H         3.34876116955573   -5.16265117223503    5.46405465832638
H         2.18336902417666   -4.89298772714788    4.17521114301839
C         4.83725869518123    3.35950345145652   10.29641556596532
H         5.59066349990461    3.53339122715964   11.06030833000163
H         3.95427732776413    3.93616750554582   10.56581851975329
H         5.22111484963774    3.71648981195923    9.34363267799594
C         4.05634200416194    1.33665202508447   11.56625106336664
H         3.74767588831954    0.29632183153956   11.49441413531115
H         3.22227593149855    1.91529244192374   11.95787025730096
H         4.88288411718411    1.39986110968741   12.27085655705767
C         5.97660577114931   -3.00282188032543    7.73254070967579
H         6.79385077335586   -3.31188615264715    8.38198547422522
H         5.82701390657320   -3.76982475186644    6.97576535718759
H         5.07104005040283   -2.92701352137198    8.33097771703178
C         7.50301832156747   -1.82057714339186    6.12760615849977
H         7.84123223859745   -0.84890988882230    5.77674343013059
H         7.21233420122620   -2.41020768329560    5.26123794965551
H         8.33094792160637   -2.32901803448627    6.61680168153566
C         2.44628044056453    4.21501153161918    7.64536507641654
H         2.95709961278674    3.30027843458992    7.33413103820021
H         1.37722987504246    4.02010010647835    7.68637638906584
H         2.78187551283281    4.47828353254328    8.64363414720022
C         2.00988797094663    6.62300826835366    7.05880847820633
H         2.34368867686445    6.97538510856013    8.03199160346121
H         0.93882803404050    6.43750920841797    7.11160236792190
H         2.18533002029064    7.40998418163430    6.32860544541390
C         7.78173222413040    3.98238372465155    4.05107761740620
H         8.33253494619351    3.80652090194474    3.12935219294414
H         7.06960113728507    3.16778476641221    4.19169661509058
H         8.48236074300044    3.96669475514714    4.88288313574391
C         8.04674717567928    6.44940380290411    3.66797264015507
H         7.55601983726528    7.41989646856029    3.68952011954491
H         8.46485349213128    6.29880342712259    2.67456270913424
H         8.86966393065779    6.46206026838768    4.37792676289402
C        -0.06707951272293    4.30022647035305    0.83847833420927
H         0.64167928082475    5.11299245339078    0.69787069962916
H        -0.93248695926674    4.68860373470423    1.37148667672244
H        -0.38998048323466    3.95491754692272   -0.14140146955752
C        -0.46051984014251    2.05218285581191    1.88966682854786
H        -0.92177045760308    1.71353539623952    0.96558774557061
H        -1.25156612338248    2.43253195697060    2.53333655912367
H         0.01516645980324    1.20150996579155    2.37192205458648
C         6.61165930376229    1.70433948799739    0.73046768374115
H         6.25385569770739    0.74608202509617    1.09764463129798
H         7.54227346774303    1.93649221175244    1.24327113206602
H         6.82711735254818    1.61909168880182   -0.33235910401712
C         5.99141869073243    4.09623892567917    0.29509125505123
H         5.95446312822733    3.95784876444656   -0.78410625386797
H         7.00570921846932    4.37393577174491    0.57359787751306
H         5.32457871476474    4.91389909723527    0.56051950824360

