86
CSD_code = HEVDEU | q = 0 | S = 0 | Stoichiometry = C33H44MnN2O4PSi | MND = 5
C        11.46873354601603    9.53820239347319    4.68237188800310
O        12.37008615192805    8.85621441424686    4.45762466813841
C         9.07695136743824   12.01341179429811    5.54061903066985
O         8.45661605033613   12.93110266266573    5.85874795314078
C        10.89956961233809   11.81969626683578    3.92716420467930
O        11.39295590267094   12.57319596306520    3.20928471976515
C        10.75792660616173   10.69808265526037    6.75073499677945
O        11.15630616374660   10.73552405923547    7.83069326723607
Mn       10.14958270272486   10.67165295700480    5.07136171196597
P         8.59824496145064    9.37314138314990    4.50529768397482
N         6.93528002519811    9.47322000335587    4.53950008701787
N         8.47779922004673    7.83531051237202    3.87727017637471
Si        6.64707679421252    5.69219946310943    2.99986048743854
C         7.17655252178867    7.38500270978836    3.67175998408796
C         6.11439019718008   10.75649686523574    6.42736891170190
C         6.24141429387667   10.60535846126854    5.04315828562479
C         5.72401462229060   11.54092844706217    4.14274071949082
C        10.26805604444940    7.42141586039665    2.29425543685135
C         9.64692568818830    7.11954872566722    3.51024891808114
C        10.16832585544248    6.16675789261910    4.39132756074295
C         6.30872083715800    8.34078937079972    4.06528109379666
H         5.23633881544487    8.29839996657456    4.03980858418892
C         5.07521274102515   12.65274463504185    4.66093482420262
H         4.68426001883646   13.40469400421993    3.99455920521647
C         4.92947763665733   12.81392484522979    6.02563094180731
H         4.42141381096735   13.68508789173303    6.41140257104997
C         5.43636214470348   11.87201133088339    6.89962737744769
H         5.31370965926618   12.01414743429746    7.96128592752499
C        11.33179247330369    5.50591633624747    4.02464994988747
H        11.77059019281590    4.78084206111537    4.69135553555078
C        11.94291735426495    5.76939444044060    2.81331802945085
H        12.84476364727105    5.24170989631954    2.54122560746805
C        11.41449039507055    6.71414720856487    1.95622263164657
H        11.90853884386759    6.91423333155397    1.01834386291095
C         6.66328786511001    9.71689743237988    7.37638811089347
H         7.44989944589969    9.14605183622936    6.86189755946926
C         5.92095069732836   11.36981335895184    2.65352016934738
H         6.08427076029840   10.30810196967336    2.43687952427535
C         9.71817116629482    8.47483756459326    1.36034017744315
H         8.94991971822185    9.05718423901332    1.88697652329753
C         9.50858649026968    5.90673099664479    5.72635051538506
H         8.46325366301635    6.22934513602051    5.66911186876145
C         7.30439163325309   10.33604219795157    8.61724541334669
H         7.84303689875850    9.57154094512695    9.17299652354707
H         8.01215972821352   11.11109920229851    8.32967613362729
H         6.55904807312600   10.77072069259287    9.27875226960128
C         5.54758374435164    8.74227274512888    7.76567348139555
H         5.93152534283797    7.98270874667744    8.44291489289905
H         4.73852564219499    9.27360621521357    8.26301312214379
H         5.14345195612371    8.24719233878208    6.88429525294201
C         7.17336406884243   12.13999175739644    2.22401744002810
H         7.33990207080106   12.02711605013855    1.15483895064446
H         7.06500095060217   13.19821484488846    2.45110858934713
H         8.05366990094493   11.76814826897578    2.75333253044811
C         4.70628176474892   11.82011809508355    1.84137944049063
H         4.82324505023216   11.51033748620255    0.80510039688190
H         3.79436794295499   11.37472324066862    2.23378961980549
H         4.59961947948785   12.90137873079792    1.85526846740019
C        10.80464512759747    9.45866035795645    0.92413717060543
H        10.35759189862194   10.28443023496943    0.37485905221365
H        11.31655513473080    9.86530779027415    1.79480722543655
H        11.54031745241865    8.98190359241072    0.28151357622606
C         9.05883025651430    7.82269245630334    0.14257543449391
H         8.69906948046069    8.58889581628545   -0.54075104530419
H         9.77194949840886    7.19571258019999   -0.38853804956140
H         8.21441952995300    7.20729152247426    0.44673280719719
C         9.51658800040234    4.42794849179725    6.11616487239783
H         8.88937894202184    4.27757500175322    6.99255219847292
H         9.13267763596275    3.80881257913861    5.30801400329019
H        10.51915716975258    4.09098046605769    6.36553255481633
C        10.20705364194349    6.74096714543966    6.80443763065959
H         9.74485195215152    6.57064791535862    7.77447933517355
H        11.26007467181437    6.47589860642215    6.86799118882739
H        10.13913520999845    7.80544374887469    6.57087178146739
C         8.04648321796938    4.63475259845884    2.26467650788640
H         8.61455021304108    5.16067960790757    1.50514123662804
H         8.75196610820911    4.31082474165216    3.02197323982367
H         7.62788814116922    3.74464981979415    1.80368485919632
C         5.82772302782651    4.75914039372024    4.44960397995783
H         5.02737913715953    5.34286411345820    4.89497353520792
H         5.39813166251340    3.82146233207159    4.11069852469141
H         6.53895884100289    4.52544054318846    5.23580534203646
C         5.34560502781443    6.05544131192211    1.65211069245433
H         4.49324043271254    6.59112241166601    2.05780970583065
H         5.75045769731294    6.65461224907575    0.84196289998274
H         4.97300993849641    5.13246123678584    1.21927593255927

