67
CSD_code = HEVJIC | q = 0 | S = 0 | Stoichiometry = C21H33BBr2FeN6S3 | MND = 4
Fe        6.88187020431958   11.60191561752147    5.27913960171032
B         7.27474604606491   13.19212729013827    8.74100371865890
Br        6.81499573659489   10.02285990756432    3.78414938827894
Br        7.43825646899366   13.99159873376633   10.58816201399947
S         5.19120626420995   12.95894234694270    6.14736377610594
S         7.30150145780177   10.14416938808739    7.29603872367789
S         8.56180167878051   13.12992800941235    5.68507268405883
N         5.93506696426315   12.43625797377307    8.69990117126742
C         5.08383016805210   12.21452883319689    7.67102543899725
N         4.12885693369986   11.34198496463357    8.06495193649681
C         5.51437994238276   11.64986538728698    9.74397715826879
H         6.03006187929672   11.62262296121371   10.68143286711567
C         4.40560729603259   10.98650652512429    9.35976970234942
H         3.81461074072635   10.29677807000528    9.91961876129455
C         3.05447920003241   10.78639214806339    7.23103999209817
C         2.13473029782120   11.92354082475944    6.77856585611399
H         2.68397451005458   12.66066740993024    6.20011456519769
H         1.69052916629339   12.41794453148736    7.64046435125593
H         1.33941404249480   11.52258356550469    6.15692761412152
C         3.67997463110129   10.05914031922075    6.03688323310060
H         4.47241080228239    9.39173433362230    6.37262152462531
H         4.10195962871731   10.76191119978348    5.32128606612271
H         2.92542611041530    9.47164345514053    5.52265432599224
C         2.23777302463159    9.78233690617868    8.04527876717503
H         2.85038261656356    8.93943762142280    8.35585971088847
H         1.43551808890192    9.40106091589399    7.41915574138300
H         1.78667207714610   10.25033205799280    8.91762396450785
N         8.47322718368073   12.25369119761070    8.55058616108800
C         8.58289028940851   11.05038539536847    7.92910556695735
N         9.88739711272048   10.68240673904941    7.92185364369882
C         9.74361245676963   12.64518718689626    8.90193234015490
H         9.93571167359460   13.57208792461491    9.40195647399349
C        10.60671377194998   11.68291413261551    8.52355127207940
H        11.66637415542664   11.65472487028108    8.64601738718061
C        10.45605583921989    9.48006556215658    7.29765670017736
C        10.14017137254560    9.50708188029258    5.80005444959475
H        10.41326990259070   10.47085877595859    5.37309489196524
H         9.08256866951849    9.33847251932975    5.62104514965920
H        10.69642387125936    8.72712763305321    5.28912896865331
C         9.86942615882165    8.23776475361178    7.97201252299166
H        10.10991626808357    8.23340067699874    9.03344658121492
H        10.28574200990676    7.34533622924961    7.51413123675743
H         8.79019488339639    8.21140567511283    7.85784733889698
C        11.97451538092487    9.47025506161644    7.48201402621603
H        12.43881328527376   10.31603733644205    6.98009734409613
H        12.36852901948759    8.56011059347446    7.03765734925262
H        12.24799644065702    9.47294865779701    8.53499999896625
N         7.31142777599950   14.37218394307616    7.74269967079855
C         7.76457153278954   14.41022173714268    6.46792194294800
N         7.46022946381778   15.60998741880422    5.92301391160915
C         6.68668887085256   15.57073516643838    7.98156916622629
H         6.22819048881958   15.79791961299723    8.92173963122135
C         6.78280068954795   16.33220235730763    6.87265012766328
H         6.41887941708409   17.32208296873810    6.70957669127205
C         7.68319402637753   16.01492328195909    4.52835549698740
C         9.18220195409377   15.97144281786709    4.22210157371137
H         9.72276164467008   16.63836735886188    4.89092409700768
H         9.35432614205704   16.28973240265721    3.19798067837064
H         9.57592292745822   14.96665776498420    4.34047670816746
C         6.88941437292107   15.07676591556882    3.61203992480276
H         7.25600598235115   14.05161462789472    3.67445564495075
H         6.97955443140809   15.40579317387825    2.58108296906040
H         5.83771546907679   15.07896276173995    3.89305596606474
C         7.18135445668597   17.44470529551189    4.31945233447583
H         7.69452402458897   18.14377700010581    4.97609623719048
H         6.10785447057501   17.51475647049962    4.47796368631077
H         7.38689613590120   17.73679382476652    3.29307148269047

