67
CSD_code = HEVKOJ | q = 0 | S = 0 | Stoichiometry = C21H34BClFeN6S3 | MND = 4
Fe        6.57299126351923    1.75097903181462    4.69287611171030
Cl        8.33728611556456    1.03682108753096    4.18771988036972
S         5.91413173200074    3.39330517892158    6.23291411198590
S         4.46048857792042    0.86022485574776    4.63974924238507
S         6.36683785515768    3.24130624500603    2.49703483615370
B         3.43719265381784    4.00560094538004    4.05658741925142
H         2.48370335093016    4.68133033257093    3.81619593965928
N         3.30843452075800    3.53778654041962    5.52962081951448
N         3.61888054989859    2.78962074306210    7.57768933197353
N         3.41825768608309    2.80942700145538    3.08327056922760
N         3.79131691124153    0.93448571972405    1.99110107404613
N         4.69749810452050    4.86900921029840    3.87886218247603
N         6.71564254128372    5.70559555727073    3.58943651163332
C         4.23749067222237    3.23309679993070    6.45465466252474
C         2.08642107387430    3.27124939201551    6.07861624964826
H         1.18361701169306    3.42913092596572    5.52705255884745
C         2.26831779662818    2.81260297368697    7.33587830218086
H         1.53908884792020    2.51213337537713    8.05534656872954
C         4.27245139582994    2.25772758238856    8.77930271891454
C         3.21644703254718    1.83189140543419    9.80101878489899
H         2.59365416299977    1.02886307275869    9.41426498034758
H         2.58962323608528    2.67084876344574   10.09508443843076
H         3.72295489231493    1.46430181955759   10.68956734847683
C         5.09948213165957    1.02985176810171    8.38400821603942
H         4.46627295259195    0.29329081489583    7.89357186383652
H         5.54327673483742    0.58270649420655    9.26865959611055
H         5.89945277326666    1.29916750727126    7.69620226140729
C         5.14790840008801    3.34831754712749    9.40145416978816
H         5.62969428739191    2.96492925843210   10.29631529742249
H         4.54098098856792    4.21000842376884    9.67214597225225
H         5.91531899788006    3.66850224185914    8.70357477593464
C         3.89823774779921    1.55752727264785    3.18982175177222
C         3.02534969598709    2.98325674122021    1.78674815833019
H         2.62500820845227    3.91532321128394    1.44823718052189
C         3.25070628187550    1.83625382875517    1.11085981321291
H         3.06611494184747    1.61363094068410    0.08352107572189
C         4.27544716774716   -0.41076177452964    1.65909425277018
C         4.03176552148178   -0.69751874599341    0.17658251974589
H         2.97336203126606   -0.64680308784227   -0.06974492005769
H         4.37806046276297   -1.70403736121734   -0.04295961093788
H         4.58813355502909   -0.00593802391823   -0.45110134634495
C         5.78160678902893   -0.47580883366451    1.93005599459077
H         5.99628333999910   -0.45307745727757    2.99775711585427
H         6.28431103807274    0.37116581198737    1.46671393301531
H         6.19349494825204   -1.39427411386069    1.52245495678920
C         3.50896642799349   -1.43866057359110    2.49595242606034
H         3.64988605673821   -1.25309432874009    3.55672617820942
H         3.87042145634500   -2.43740351894207    2.26845428579702
H         2.44486967704543   -1.39133712354198    2.27220894327757
C         5.92246015469269    4.62274444137549    3.36253049353697
C         4.73293351248653    6.11744167523604    4.44158193802839
H         3.87274336184955    6.53275393384159    4.92358206889119
C         5.96655255102278    6.63289223538478    4.26995018998310
H         6.34685748630930    7.58079837875452    4.58028260532638
C         8.14700374121445    5.81771618588157    3.28843867578085
C         8.67840803920043    7.16764970197630    3.77478712450416
H         8.58393847614194    7.26248643215399    4.85402960111040
H         8.16565494489821    7.99479155226173    3.28846748269305
H         9.73368785736031    7.23392831405032    3.52297890850468
C         8.89102352320110    4.70097965710670    4.02590057929655
H         8.62306539414349    4.70308581930075    5.08164258937066
H         9.96374679772960    4.84324457334265    3.93433788397240
H         8.64032422823106    3.72773344433518    3.61200730704967
C         8.35584694316134    5.72178464632457    1.77512890952821
H         7.82939358546063    6.52849250135126    1.26881047785001
H         7.98410184764155    4.77292691210573    1.40085787085760
H         9.41521695643376    5.79539411633574    1.54682578921549

