45
CSD_code = HEVKEB | q = 0 | S = 0 | Stoichiometry = C16H22BMnN2O2Se | MND = 8
Se        1.03700786568855    4.42700798553129    2.59542941551172
O         3.13128221486549    4.67966864590641    6.25870890807161
C         2.66581827527794    5.28414058196129    5.37045732222787
Mn        2.05273212381244    6.29675507018838    4.08179910699828
B         2.04068904919644    2.88820071710628    2.27816934084163
C         3.66491537761531    6.24353565034167    3.40223777269066
O         4.77138645281793    6.24398023358878    3.02065695116701
C         1.59621459612988    1.63314314910365    1.36566872226554
C         0.48716260599909    2.01123875943306    0.37910303403649
H         0.17347817891804    1.14575963897094   -0.20084545564972
H         0.83354631803798    2.78307591016847   -0.30322991771492
H        -0.37010777362082    2.40536338267025    0.91953826802199
C         2.77823223897406    1.05540548583920    0.57206320933854
H         2.46376538948414    0.16399218409178    0.03229461762670
H         3.59891792583664    0.78066018744283    1.23202493709283
H         3.14134113062224    1.77700449221796   -0.15472645577183
C         1.05757700987851    0.52309956123902    2.28651173211009
H         0.68581807215557   -0.30676906348562    1.68842808310814
H         0.23950001268735    0.89965446235357    2.89464397695974
H         1.83972725904361    0.14690992855879    2.94124119126079
C         0.12919403859509    7.08746219199680    4.63457326426655
H        -0.77861653079594    6.58446313377519    4.94205067749837
C         0.41639140140295    7.52762199919874    3.32226875107741
H        -0.21557481533403    7.37247760799455    2.45600537452734
C         1.58874360609348    8.29256934026803    3.35644268486331
H         2.00081892506105    8.86142830557548    2.53352539411551
C         2.04022297720710    8.33823284091505    4.70135954271547
H         2.82651537988091    8.98057776279079    5.08126519245344
C         1.11144443113490    7.61407772571516    5.49295182725269
H         1.09671470205192    7.58142680103049    6.57555629572126
C         3.41635936108623    2.86335828624324    3.04727418416572
N         3.60429351457077    2.50667418339352    4.32617318309050
C         4.89360485829401    2.77302151402019    4.68377746521092
H         5.26095283357717    2.59034489608969    5.67168864380398
N         4.58398810936603    3.33959263437265    2.59353373500557
C         5.50909841634486    3.29758081744115    3.59535756549753
H         6.50916180004921    3.65395019689552    3.46445299898089
C         4.82081248410722    3.83873605113330    1.26779257928313
H         5.43543886532838    4.73568926425560    1.32442143359760
H         3.86438812285242    4.09036471229981    0.81242866342109
H         5.32876688186980    3.08621309446959    0.66140265291330
C         2.60291052703941    1.94960368059634    5.19240344535056
H         2.73793096022372    2.34366525796767    6.19791247118098
H         2.67730898205562    0.86053588328384    5.21639220264451
H         1.61922584451822    2.23780485505175    4.82451501117391

