98
CSD_code = HEVKUP | q = 0 | S = 0 | Stoichiometry = C39H47BFeN6OS3 | MND = 4
Fe        9.50509416187110    4.52436681559973    1.48774340022452
O         9.92449683407025    3.32537861822168    2.68222348262370
B        11.05266194368038    5.97279970940347   -1.83556558508077
H        11.57835633295581    6.38905988882962   -2.82562082714243
S         9.44132820384220    6.77596197622767    0.96589290315219
S         8.54151779725738    3.98713437817616   -0.67651541277690
S        12.16970901185644    4.24653306438263    0.86063637941728
N        11.59028355145819    6.80171229099427   -0.66015718454123
C        11.06586936530699    7.06360047296942    0.54743136263647
N        12.00150576688856    7.67193123306276    1.31806846411718
C        12.88592198968567    7.23243536240026   -0.64452529050306
H        13.52194453398639    7.11451621142419   -1.49609528248971
C        13.14600033812847    7.76746336763538    0.56743528438635
H        14.05109715088619    8.20073201167386    0.93139909637650
C        11.87745486896669    8.00221715898305    2.74134933920200
C        11.61420563633093    6.70568139958290    3.51319063979788
H        12.41339550677113    5.99391281751821    3.31752270786524
H        10.67566417437423    6.24543363261658    3.19870340189674
H        11.56465391642672    6.90741009868767    4.57981591225602
C        13.18199919273270    8.61790916808270    3.25128074534190
H        13.42816371553795    9.52802123455518    2.70878181152845
H        14.00573999676166    7.91276919327790    3.17411289058295
H        13.05773357994678    8.87536422278960    4.30003780385366
C        10.74776214501395    9.01729078919693    2.93387511211574
H        10.96445960150890    9.92984840395429    2.38230273522696
H        10.64998409720209    9.26150172259381    3.98801249363395
H         9.80482871033063    8.61348662857867    2.57849564711757
N         9.52092570611281    6.11728961877236   -2.05018021201071
C         8.50154523693921    5.27394842986376   -1.78139244953664
N         7.41296265234575    5.65773818301849   -2.50680058886439
C         9.04543080721982    7.07198406567766   -2.90672656675981
H         9.67094383991028    7.86853342341663   -3.25081893502589
C         7.75725368244023    6.79508963284688   -3.19476723526345
H         7.08078792193448    7.32476248435263   -3.82836553661322
C         6.13514627083189    4.94837512267643   -2.62095972363778
C         5.44254579388597    4.94341837637060   -1.25894118433248
H         6.04964680398341    4.42008647160811   -0.52722866100693
H         4.47929953621815    4.44731286037285   -1.33430343505710
H         5.28915386707714    5.96337419975200   -0.91486262669800
C         6.40612980982445    3.52221912581341   -3.10829974982972
H         7.03657660528407    2.99533800506621   -2.39883418891343
H         6.90611319446774    3.54166754602808   -4.07472149050991
H         5.46840923919587    2.98351552867209   -3.20989349276614
C         5.23052395568246    5.65097001320679   -3.63572425214428
H         5.68883884428104    5.68209420755188   -4.62165885971632
H         4.98588144863622    6.66109328817553   -3.31593360742654
H         4.30196513099773    5.09150568012535   -3.71505890563060
N        11.39959571347364    4.48025871163455   -1.71506249950651
C        11.79912744164153    3.69875034353878   -0.68638810870486
N        11.92110050163750    2.41774361986872   -1.14004107452667
C        11.25026437278153    3.67439342672864   -2.81332183924835
H        10.92967162457656    4.07130091231010   -3.75418825309097
C        11.56515780817509    2.41119698752523   -2.46654096007746
H        11.55975651501242    1.52912486546683   -3.06790678734378
C        12.26537931757046    1.23610425436113   -0.34469895120780
C        13.65342815675964    1.42441792575516    0.27199056925416
H        13.66384972552890    2.29355898942749    0.92232587732936
H        14.39872444048344    1.55990351020012   -0.50964843626458
H        13.91364571820329    0.55077481568542    0.86260188612523
C        12.29096971512829   -0.00858624170005   -1.23492394521419
H        11.31004600914601   -0.21391681127997   -1.65746859199312
H        12.57787447710076   -0.86095509876426   -0.62438008899060
H        13.01994755011497    0.09191038066768   -2.03644423706214
C        11.19833240480845    1.05307336050215    0.73516143665900
H        11.19633348960859    1.90067281395318    1.41412409870393
H        11.39789016765273    0.15405205957749    1.31125443198608
H        10.21123084811638    0.97490031210030    0.28140063111903
C         9.34539064060612    2.59751400624180    3.61927979015926
C         7.94997328320347    2.63448786943095    3.83816434328009
C         7.36797966128990    1.77364663753948    4.75837451606018
H         6.30068829432540    1.82514227001866    4.92114788757367
C         8.13878907921971    0.88423313497997    5.48440361868756
H         7.67545269755035    0.22643705286305    6.20462444078855
C         9.50769073637653    0.85239940420978    5.29232272284453
H        10.11741814520911    0.17615607001901    5.87430522125031
C        10.12781837984029    1.69247411251510    4.37708422476418
C        11.58521722263355    1.62691583480459    4.19034132740015
C        12.34978509004899    2.78733750459011    4.10696331187659
H        11.86473171511636    3.74808668464897    4.18409986702463
C        13.71769392512317    2.71491877299960    3.92506095389156
H        14.29725133830787    3.62348619888195    3.85120262723921
C        14.34524111312717    1.48469856186185    3.82942679440565
H        15.41414661655070    1.42962959129266    3.68163580668257
C        13.59533958221418    0.32385678579892    3.91974322736461
H        14.07964411300833   -0.64024280184586    3.84559668567042
C        12.22686869100218    0.39328268010884    4.09909894414159
H        11.64240222179325   -0.51489767141607    4.14942720021514
C         7.11155660874584    3.60972983081936    3.12532275417955
C         5.89589559774607    3.22818388720646    2.55998659954258
H         5.61828168227653    2.18410860474857    2.55876922074634
C         5.04866469354908    4.17219057056928    2.01419554588511
H         4.10293539991355    3.86477738524279    1.59168092865566
C         5.40187058517546    5.51310670450221    2.01641754681811
H         4.72646531594438    6.25062461109064    1.60898335012876
C         6.61599526884637    5.90433263240631    2.54912068802950
H         6.89601375890231    6.94680722207063    2.55748726002839
C         7.47361769932784    4.96015975781172    3.09583558731897
H         8.36394236540388    5.28774881972391    3.62709151602863

