67
CSD_code = HEVLEA | q = 0 | S = 0 | Stoichiometry = C21H33BCl2FeN6S3 | MND = 4
B         5.87619783500217    4.44608238485543    4.80799081856331
Fe        3.49261729276220    1.92161569541281    3.08842729632325
S         4.75223355423290    3.47565694683199    1.84844736207969
Cl        1.71624492421113    1.13680665871345    2.79450360584272
Cl        6.98168191629624    5.66323819661095    5.69074195089004
S         2.60922777096195    3.63134955513429    4.94183003786479
S         5.35541016934544    1.22330447233986    4.22600670857030
N         6.72235722942902    3.85317516519744    3.66214303250859
C         6.34014532328984    3.41003316401712    2.44335405869405
N         7.41514656435153    2.89233113015966    1.80543868069681
C         8.48969879334248    3.00471232779392    2.65201781793402
H         9.47219407245198    2.67238318012275    2.39975572967918
C         8.06065840651059    3.58775047856223    3.79028599576100
H         8.59740603001449    3.84806040865823    4.67824599951321
C         7.40991000644941    2.21441156559113    0.50262374199684
C         8.82733134523531    1.76210930214260    0.14768756744990
H         9.51125635025386    2.60640939260057    0.09906306212254
H         8.80535528157129    1.29193499829212   -0.83187540617636
H         9.19949810863588    1.03096744570949    0.86117981232853
C         6.50696330336716    0.98016229580962    0.59783500970512
H         6.53679912870569    0.42902148982040   -0.33739409349862
H         5.47429348543702    1.26087611244996    0.79854545643287
H         6.84338873256582    0.33039021893735    1.40315894318306
C         6.92101329529251    3.18982854905002   -0.57050807780006
H         7.57285079680955    4.05995108804294   -0.61368625015518
H         5.91009202017183    3.52238764302999   -0.35698181354165
H         6.92764718908105    2.70001373893933   -1.53994334370105
C         3.35910499162744    4.95798602251459    4.21955182429852
N         4.68708616267150    5.24118352370663    4.27634700861489
C         3.69660266254266    6.84663822784939    3.13057758036483
H         3.47872030894617    7.72317706100045    2.56200410064200
N         2.73862350308757    5.94455351329908    3.52321893900769
C         4.88640856151646    6.41534738242782    3.58898977353574
H         5.86125819009545    6.84573613760771    3.49371273846337
C         1.32246157046789    5.98139479866045    3.13813146216864
C         0.45554655804017    6.02139403138296    4.39869159478355
H         0.63295955458365    5.14293502912527    5.01107143847660
H        -0.59371464311638    6.04387638506915    4.11907685005247
H         0.68253545123098    6.90915486765010    4.98549402322821
C         1.04188141341817    7.23478047096995    2.30703439710807
H         1.26750552093711    8.14030377366681    2.86610001570517
H        -0.01543717965254    7.25202938040166    2.05570230443204
H         1.60735577422235    7.22722628309342    1.37811201269970
C         1.01650927698671    4.74557905611399    2.28732857687232
H         1.06654027012246    3.83920762950544    2.88476500693791
H         1.73628276736102    4.66022512210787    1.47424251687713
H         0.01814068819037    4.82110327523044    1.86695019833336
N         5.47695667558862    3.38779080723935    5.84536691870634
C         5.15036993520671    2.08747271984054    5.67858793285401
N         4.69049709486409    1.59316798004390    6.84962514714346
C         5.18338731311906    3.71639670835585    7.14277685906176
H         5.34141207568335    4.70581569144073    7.51696650179745
C         4.70733071882135    2.61704064536048    7.76209605570688
H         4.38358441124378    2.50741376928370    8.77298618215251
C         4.15299921556919    0.24542793845476    7.07807708303891
C         5.25812566370177   -0.78357034464858    6.82664012768715
H         6.08947429638929   -0.62058048215396    7.50960967198278
H         5.62638671689091   -0.71403814875662    5.80743579326807
H         4.86672065921752   -1.78434235161460    6.98480593970344
C         2.95629281235101    0.02674060995481    6.14718114306274
H         3.26965613796022   -0.06597207843645    5.10801214628004
H         2.26560000044637    0.86489709020726    6.21857323192967
H         2.43308098296629   -0.88358727322495    6.42408406004554
C         3.67733629158544    0.11816134299680    8.52605358364916
H         4.49056795601653    0.28812109809519    9.22814214951135
H         3.30794030394752   -0.89203473421025    8.68136769836105
H         2.86359040938393    0.80878343557853    8.73231570819284

