78
CSD_code = HEVLAW | q = 0 | S = 0 | Stoichiometry = C26H39BClFeN7S3 | MND = 5
Fe       -4.27525474395505  -17.05622521405614   -1.13508622262880
Cl       -2.32366012738303  -16.78948741122643   -0.44377811085180
B        -3.97508802242099  -19.94863510049952   -1.80874460465640
H        -3.70708111259258  -18.84326608321959   -2.24620246845623
S        -4.94214383663969  -18.32370273370450    0.76482259482399
S        -6.14082821798051  -17.54420491280962   -2.36174770431760
S        -3.58737601495120  -23.25757935919047   -1.36540914503440
N        -4.97085577954570  -15.44652296087224   -0.61496752728718
N        -3.30129623012686  -20.09566493759721   -0.42649834144916
C        -3.65545408432332  -19.43700219250528    0.69269254528142
N        -2.80751003224668  -19.76526216116213    1.69241281027065
C        -2.17268480808747  -20.80472195254489   -0.13971974104925
H        -1.66031484883525  -21.38602217610648   -0.87534824230787
C        -1.87197219404534  -20.61809221404146    1.16523772983450
H        -1.06923877002965  -21.03276310743215    1.73327267630350
C        -2.84292465595329  -19.25831157749474    3.06769120105238
C        -1.72632789203685  -19.90448713109260    3.88853663186718
H        -0.74696315790124  -19.63420008606594    3.50133605187533
H        -1.82545726792007  -20.98761020638646    3.90697256319125
H        -1.79384501611998  -19.54306637072016    4.91144696472396
C        -2.63328855622601  -17.74246400997038    3.04013737175266
H        -3.45566843506256  -17.24957005631774    2.53057843119310
H        -1.71665768433762  -17.49811679014010    2.50879251341905
H        -2.56967251056163  -17.35989770509353    4.05483998335200
C        -4.19307650166043  -19.62319724577683    3.69021937532969
H        -5.00486568858796  -19.17355397370180    3.12622690116937
H        -4.23595183593399  -19.25974210148339    4.71301105041600
H        -4.32660925823929  -20.70310134033743    3.69538465559375
N        -5.51079366196011  -20.08689512847062   -1.66513569169875
C        -6.45157934698030  -19.14305308128284   -1.86492059297342
N        -7.67167692229386  -19.67154793999333   -1.61428493280201
C        -6.15276550857839  -21.22590539065620   -1.26796183582280
H        -5.60664683976623  -22.11821820370563   -1.03344691078785
C        -7.48006179457016  -20.97950465846538   -1.24024324959302
H        -8.27838799125732  -21.63831449670889   -0.98000925698235
C        -8.95502880097094  -18.96185982381445   -1.64191264945383
C        -8.90417316362144  -17.81963464195879   -0.62292563859221
H        -8.14786255952997  -17.09160593268765   -0.90022946845732
H        -8.66104058874450  -18.20838108715188    0.36346389618096
H        -9.86844234688774  -17.32169337966422   -0.57937910319428
C        -9.20701730251217  -18.43524847342015   -3.05679230094971
H        -9.22907224299056  -19.25896165738250   -3.76735172895297
H        -8.42524195058753  -17.74141206554067   -3.34953992983622
H       -10.16198385357176  -17.91878936003910   -3.09122684481000
C       -10.08757644859221  -19.91684443484521   -1.26099653111821
H       -10.15065152758526  -20.75293956701552   -1.95371133505899
H       -11.02807870665992  -19.37383925648361   -1.30480357291480
H        -9.96353154633178  -20.29198468944784   -0.24804513761541
N        -3.45912294962012  -20.98068887127512   -2.81353872926190
C        -3.29605729604979  -22.32961614781291   -2.72319199160255
C        -3.11280998072278  -20.61241976627457   -4.09085462508298
H        -3.16313238171797  -19.59246476594027   -4.40969840420043
N        -2.84195644212938  -22.78920102857294   -3.92801497524403
C        -2.73449590981523  -21.70949964054254   -4.77388724145176
H        -2.40238217427439  -21.78821858707961   -5.78553574417791
C        -2.51764157300118  -24.17892553369921   -4.26182219433836
C        -3.77466884730690  -25.03836533673867   -4.09822784343964
H        -4.12168110583288  -25.00562315921507   -3.06966646425290
H        -3.55349043875219  -26.06948112515911   -4.35834655720371
H        -4.56815073232547  -24.67356332766835   -4.74770469416112
C        -2.03851894880824  -24.27400846358735   -5.71159352865635
H        -2.81031174650871  -23.94897883691240   -6.40582715448967
H        -1.80541936028352  -25.31275896405440   -5.93123916817391
H        -1.13657861737444  -23.68690634644858   -5.87003750536199
C        -1.39673856291070  -24.66569339231883   -3.33819134093580
H        -1.72171456601268  -24.63596601228651   -2.30222134328267
H        -0.51593928881735  -24.03571978867472   -3.44874343158765
H        -1.12986666145048  -25.68845450740435   -3.58828975447961
C        -5.69958342929981  -15.10638668756527    0.45473044990251
H        -6.00090632906425  -15.92198201117922    1.09572807207233
C        -6.04893600710396  -13.79992939536632    0.73102194734951
H        -6.63844747886537  -13.58109382205807    1.60716945500911
C        -5.63370814930934  -12.78762006740645   -0.12176186604495
H        -5.88900121773849  -11.75768172852133    0.06939044992639
C        -4.87900588674972  -13.13931383849648   -1.23695180912186
H        -4.53290702576133  -12.39205514561105   -1.93339601185742
C        -4.58078190193815  -14.46528045418766   -1.44518387745100
H        -4.00436460275903  -14.79299886766313   -2.31267124634433

