86
CSD_code = HEVPII | q = 0 | S = 0 | Stoichiometry = C41H39CuOP2S2 | MND = 4
Cu        5.10698303092744    1.71263570880930    4.97895613595349
P         6.69257021349335    3.20304902835971    5.61150474894325
P         2.96334431350643    1.90869638713738    5.42928211421340
S         5.54229172080912    2.05794704230536    2.56702318998186
S         6.22112576126986   -0.18266822812668    4.35777310573189
C         6.41536298788469    0.67648525706479    2.92557962923073
O         7.31235137484210    0.17424057757698    2.09057330681130
C         6.01902745173522    4.88990656108550    5.63737926946774
C         8.31906248787771    4.29577262021578    3.54991345378175
H         7.68421088071982    5.17057638840588    3.54896660763780
C         8.10393019905957    3.27686475776395    4.46937952980203
C         0.35754468713384    0.98989435116678    4.82585309612237
H         0.00456314657218    1.98070842507511    5.07836773566875
C         1.90977630151721    1.22256333283883    7.97390248505760
H         1.23117344170323    0.54612114523082    7.47388588135879
C         2.79042429458363    1.99858949500003    7.23076704773035
C         7.05074362942546    2.09035444221095    8.10733730617583
H         6.19126656235733    1.49454354143909    7.82491297906441
C         1.81067548321479    4.49684903108012    5.67991594282901
H         1.81861860739988    4.36631359267310    6.75282184795597
C         6.07021908171975    5.73259615873463    6.74197165467800
H         6.60320050787266    5.42878874402641    7.63217904967176
C         8.66814654129871    3.78382342425719    7.53711885810599
H         9.05786060102308    4.50133841401345    6.82723936675136
C         8.91599597572557    2.14265214007535    4.45377303353685
H         8.72605103639247    1.34416458123579    5.16075524134164
C         7.66375871705682    1.91822164328837    9.33567448795047
H         7.27909097183556    1.18806589986826   10.03241025158870
C         7.54397221712749    3.03072983195338    7.21022162395663
C         1.71551316456133    0.69711691264130    4.90636741884346
C         4.67453654501132    6.50648377605238    4.46725680643472
H         4.12690976597245    6.80362189153536    3.58544458933697
C         3.67997054939429    2.85114384643173    7.88291805752796
H         4.37668597269792    3.43217430604539    7.28712820521569
C         8.77370946433887    2.67842287268350    9.66509527039485
H         9.25478035262692    2.54426920765934   10.62289479617451
C         9.27711067817820    3.60598622102422    8.76503536085133
H        10.14860530484183    4.19028151460832    9.02301337056194
C         2.26977586404998    3.48273738705882    4.84860362268980
C         5.43271775376444    6.96008027702354    6.69910241663994
H         5.47486098692243    7.61405116872933    7.55828429802947
C        -0.52700468525412    0.00771996678892    4.42026241279787
H        -1.58278538910694    0.22856847996784    4.35642617482163
C         2.18165329477457   -0.57019079848755    4.56900400751147
H         3.24573032720191   -0.76953362208813    4.62060127528427
C         1.90963845339172    1.31872855391617    9.35515840004540
H         1.22414405132272    0.71603969097015    9.93296812195137
C         2.78478496057522    2.17826987202185    9.99806028787467
H         2.78066324320852    2.24539571885325   11.07592011551293
C         4.74213938806932    7.35119343189477    5.56419252411595
H         4.24895464163984    8.31169131780359    5.53716122166400
C         3.67319365863440    2.94644853954385    9.25982907079043
H         4.36510874592749    3.60936837078527    9.75861947538304
C         1.34028323387927    5.67497961179861    5.12710111032421
H         0.98107833043730    6.46225288255280    5.77408280990457
C        -0.06339491392984   -1.25791425376004    4.09363831128615
H        -0.76111901084104   -2.01894587443443    3.77590329211487
C        10.14741782756170    3.05019847654133    2.61069618190646
H        10.93500702325858    2.95988641176075    1.87659058684085
C         1.28965569973142   -1.54747532698838    4.16641830362135
H         1.64855382906609   -2.53164496702611    3.90375081018754
C         1.79558197993287    4.84078542897739    2.92203480511168
H         1.79588757038684    4.97803144599450    1.85061387645481
C         9.93516208402406    2.03310754951778    3.52885299738440
H        10.55495611083091    1.14842043007911    3.51446570219987
C         9.34429108271054    4.17877519401713    2.62758782328257
H         9.50895777923197    4.96950803662989    1.90956588822581
C         1.32664823959812    5.84690228754311    3.75317060913315
H         0.95474667731982    6.76847448982643    3.32927401015605
C         2.27224482091013    3.66497052928383    3.46642874231959
H         2.66398974372201    2.88028254114693    2.83208141227324
C         7.56903921378226    0.86029028798624    0.87639164026032
H         7.81002009905715    1.90783874680986    1.10199056860651
H         6.66320897284657    0.84680764885288    0.25661763415020
C         8.72740016605217    0.17023157013744    0.17274046403156
H         9.00099630668488    0.76528475514525   -0.70073866548777
H         9.58015123371014    0.14605237236885    0.85370455969203
C         8.36864531077853   -1.25256884939870   -0.24958930852637
H         7.51583481207806   -1.22005345924724   -0.93194333751304
H         8.06742782299238   -1.81421023555296    0.63597990671523
C         5.29631052873732    5.27422766175938    4.50762841750051
H         5.22139876392291    4.59178818149187    3.67034779167312
C         9.53817540499872   -1.95227034239707   -0.92926333290813
H         9.26080024394764   -2.96284242910668   -1.21924621179139
H        10.39117111763131   -2.01058002382325   -0.25675797788052
H         9.84223257566167   -1.40948397630051   -1.82220570352571

