90
CSD_code = HEVRUY | q = 0 | S = 0 | Stoichiometry = C44H38IrN5O2 | MND = 6
C        -0.23438552331594   10.85296098684575    7.11550948810757
H        -1.15748936904500   10.36835475687628    7.36654068545600
C         0.52809421855193   11.72886457013314    7.88206002735146
H         0.31165896383242   12.06561877240913    8.87437602990669
C         1.62360470892257   12.06929136041471    7.08523124540532
C         2.79695478851783   12.88954862109130    7.19529097261165
C         3.05497400300665   13.61975199978170    8.35853688371019
H         2.35299114978585   13.56099867162049    9.17610159993600
C         4.18301709118267   14.40049227434960    8.46276255966496
H         4.37475522396831   14.96130137301975    9.36498942180649
C         5.07631382220556   14.46375938017830    7.39887846041241
H         5.96264537671439   15.07567363090777    7.47758237593948
C         4.83706904192678   13.75105416700911    6.24476037116521
H         5.54512073965771   13.81843503187464    5.43407639799073
C         3.70077432951535   12.94781560487857    6.10374075898823
C         3.43137687075465   12.19067092346329    4.88904041423911
C         4.23638419235834   12.16093999872546    3.74353852315699
H         5.14325586691190   12.73853379161638    3.73157416102920
C         3.88373782844258   11.40792463334248    2.63680543152642
C         2.69466205271437   10.66130072535139    2.65433348484157
H         2.42866793656669   10.08346776090510    1.78173789082780
C         1.84782379910366   10.63774669164226    3.74791960710031
C         2.26966731677941   11.41744406753268    4.83793229398113
C         4.74479855580572   11.35968197365508    1.38137818361960
C         5.17503602387263    9.90805534528045    1.12624885558148
H         5.74572177838331    9.53150039913446    1.97281539601952
H         5.80047268934361    9.85372232549829    0.23771714059227
H         4.31623145921863    9.25978795520846    0.97798723620491
C         3.92188754524663   11.87718714106119    0.19328146650999
H         4.52372537746690   11.86381548456249   -0.71300334361946
H         3.59816653565721   12.89901129365020    0.37888215841946
H         3.03846100331510   11.26811928747618    0.02535593306032
C         6.01029208153569   12.21558517156960    1.48892314366064
H         5.76290820068606   13.26367461568176    1.64029716541947
H         6.64763651792279   11.87513389200569    2.30187988676383
H         6.57817953378828   12.13682558910230    0.56405232708637
N         0.34016594402836   10.65650215250797    5.92802779261399
N         1.44520241542010   11.39420192144617    5.93079185725846
C         0.04067661391514    7.64134992460440    1.69716112538551
H         0.62984114011333    6.84542217515311    2.11068577234305
C        -0.60049284993633    7.68618828062721    0.46490720973477
H        -0.61269283557843    6.91789336863807   -0.27981756803858
C        -1.22256979520344    8.93607643436674    0.41478105164471
C        -2.03595669723851    9.66792956615518   -0.51477852528712
C        -2.39589827702723    9.11228858017752   -1.74538665144832
H        -2.05298701385337    8.11828297510895   -1.98862050988467
C        -3.17647921675666    9.81656735176396   -2.63285643153972
H        -3.45171526971542    9.37953973721915   -3.58086185647666
C        -3.61104894241955   11.09533773186859   -2.30174625710497
H        -4.22424363910372   11.65041154254070   -2.99618392330351
C        -3.26557002656702   11.65742975203385   -1.09271677003181
H        -3.61689984278177   12.65002054737298   -0.85965085925861
C        -2.47462994625796   10.97013750754129   -0.16641729163144
C        -2.10402086952355   11.54569624164700    1.11851215038154
C        -2.47178087895711   12.80777963520649    1.59032531216416
H        -3.08274546831588   13.44173478865976    0.96941776164304
C        -2.07527243666288   13.26115655193492    2.84053250930597
C        -1.28644051223593   12.44041696935486    3.65533603385779
H        -0.98428136736610   12.79483185229169    4.62685385656167
C        -0.88441903587660   11.17723078434939    3.25545210032319
C        -1.31576490326618   10.78033910614047    1.98391584690922
C        -2.52341801045699   14.64711948561442    3.28887682809471
C        -1.99385806294335   15.69289279625317    2.29708760388718
H        -2.28369686895924   16.69189459694591    2.61625379280299
H        -2.38592216251216   15.52985609661818    1.29728678200086
H        -0.90796719537832   15.64635826103348    2.24876771460152
C        -2.00972411349256   15.01728050969364    4.68318482933514
H        -2.36130489792743   16.01379340453240    4.94395626366991
H        -0.92243556510483   15.02688160998502    4.71121672160983
H        -2.38128291811360   14.32385983774770    5.43353264133044
C        -4.05779201971582   14.68799127102147    3.32387924332757
H        -4.43592134115850   13.92437064370933    3.99969610795916
H        -4.39932995540373   15.66017029398495    3.67343425556613
H        -4.48425137890802   14.51204454725737    2.34044450064688
N        -0.15805208401580    8.77841364945780    2.36850072777186
N        -0.91798379660796    9.53270735576726    1.58415089185637
C        -1.46408400305913    7.50236448646945    5.41808600094857
N         0.94891737208513    7.89535637495822    5.07544596494760
C         0.01590776944513    7.07390853094704    5.55740350508556
C         0.33619043014726    5.86546644239484    6.16258051767304
H        -0.47406103966277    5.25444884411278    6.52957788901751
C         1.66394248128517    5.49732544997838    6.26898475613274
H         1.94624487905598    4.56399514230897    6.73369373387776
C         2.62999381318253    6.35669232920668    5.76173315152660
H         3.67953626728704    6.11311994621589    5.81909432230967
C         2.22650157465571    7.54210058234090    5.17523924362714
H         2.94796641538299    8.23709957593867    4.76538422573301
O        -1.65862681809640    8.59451793437411    4.82400719566272
O        -2.30564950606642    6.75262325072827    5.88793000412115
Ir        0.10969271491151    9.65613100385579    4.18017221428352

