90
CSD_code = HEVTIM | q = 0 | S = 0 | Stoichiometry = C40H39BN7OPRu | MND = 6
Ru       -5.82767538046450    9.53752864995971   12.16990705385111
P        -3.78100803037622   10.27012190987072   12.97598575523353
B        -7.88423019139786   11.25706321487072   10.40078600116948
H        -8.66423221539560   11.88734747013186    9.77422884402717
N        -5.55562120637196   10.38679216527462   10.18302236192992
N        -7.69225718674179    9.00484321759952   11.46463349494642
N        -6.77172754967565   11.33571498188330   12.64653116710915
N        -6.55911895092778   11.08475695340617    9.64932103843610
N        -8.40881820786695    9.84887926051283   10.72035676370274
N        -7.57821471700715   11.91587566600640   11.75238427185705
N        -7.19161391682964    4.26586813651894   21.74673870136523
O        -4.89129116854402    6.79721410887825   11.46293289925522
C        -6.39187549177010    8.78344394287675   13.98776491882431
H        -7.33982839784282    9.16083753334124   14.40351779595191
C        -5.79321740277298    7.84094829812805   14.72999751012888
H        -4.84726752514917    7.41114802284407   14.40608609911667
C        -6.29614799263613    7.35107593888905   15.98759736048862
H        -7.24648034045188    7.75831272943051   16.30892248408086
C        -5.64535543905866    6.45286443570644   16.74762164867021
H        -4.69726615710615    6.07365213675689   16.38185749874768
C        -6.07014384502341    5.91350278740560   18.01891934393331
C        -7.24582839460766    6.29704107890067   18.67307365684940
H        -7.88318153829020    7.04916824027942   18.23303036398327
C        -7.61080394076860    5.74750282223007   19.87973426536435
H        -8.51249068824755    6.10013051048662   20.35869791383055
C        -6.82763673584394    4.76841912268777   20.50534395994270
C        -5.64343951263179    4.39257850979802   19.86305959962729
H        -5.00158502464772    3.64108035036553   20.29578934585613
C        -5.28078158201834    4.95361212645980   18.65771071900106
H        -4.36239552877953    4.63135624795871   18.18548730926561
C        -8.56972761059107    3.92760097552691   22.01656729760342
H        -9.23526346420352    4.42958163220342   21.32183187565353
H        -8.83207437830330    4.22779400198078   23.03463265547293
H        -8.73457881702460    2.84550404186889   21.92369486830229
C        -6.26119490863000    3.44320027165504   22.47854064669662
H        -5.27747053368635    3.90959989909240   22.48058524029687
H        -6.17615734006695    2.42451732402382   22.07367872206238
H        -6.60748150092754    3.37109970041958   23.51042127797707
C        -6.76249128738457   12.10056637748263   13.73077134638843
H        -6.18716884528486   11.83764902428513   14.59834110010562
C        -7.57980762962404   13.21298098501686   13.53254604719028
H        -7.77440577552030   14.01025050822817   14.21974224790278
C        -8.08011018598142   13.05193721100656   12.25864221828277
H        -8.75199076616707   13.66260245342043   11.69036052487618
C        -8.38542820632397    7.88210807322982   11.59236095046589
H        -8.00217161263008    7.05466608046448   12.16090359243003
C        -9.59484438280934    8.00135595742123   10.90738562815375
H       -10.37159171352831    7.27009043270546   10.82099674239363
C        -9.56626005686569    9.26947351664307   10.36770116825455
H       -10.28551501040197    9.78786329601644    9.76664791508944
C        -4.58092742226842   10.34140807806750    9.28774661072996
H        -3.65931102086753    9.82849647365561    9.48799735588604
C        -4.95707761940206   11.03705680471643    8.13935238917746
H        -4.38584764104789   11.18131476035746    7.24578301580649
C        -6.22791205358029   11.49297120863011    8.41514885077001
H        -6.90657818669112   12.07034170745312    7.82076557711264
C        -2.54611003900640    8.94872651058553   13.22803032260340
C        -2.00523150471522    8.61858876792490   14.46447054363803
H        -2.26860575180016    9.18816005653072   15.34322253753710
C        -1.13182815852407    7.54941148848337   14.57711471752707
H        -0.72242059911445    7.29564989394490   15.54412177241041
C        -0.78697433725593    6.80555271771779   13.46247336791681
H        -0.10842705726317    5.97059395941939   13.55620198079421
C        -1.31990056047056    7.13107155119014   12.22459635558732
H        -1.05740201284224    6.55135492399017   11.35186303512904
C        -2.19753758309093    8.19087056247763   12.11050961873560
H        -2.62899808918258    8.43984087118561   11.14921845918475
C        -3.59186940996687   11.22173589585743   14.53258343300683
C        -4.21209840801725   10.72493676765651   15.67901928198585
H        -4.79866583429599    9.81866554853306   15.60517852352663
C        -4.08750040788517   11.38594041740445   16.88707911050335
H        -4.57060684282933   10.98760932311716   17.76738101557763
C        -3.34678823378648   12.55476960018865   16.96566401487513
H        -3.25147059381241   13.07464222280917   17.90757140719513
C        -2.72928419632854   13.05352667326441   15.83168260942035
H        -2.14954795454662   13.96355050784576   15.88776422153003
C        -2.84608912477801   12.39220756100210   14.62051831429014
H        -2.35375372452272   12.79329190809204   13.74674055551992
C        -2.92777539822928   11.40665925129470   11.82069940923128
C        -1.62794484539035   11.24496102392407   11.35730302314617
H        -1.02590901807265   10.41934133748324   11.70874551398579
C        -1.09958472645535   12.14424773749064   10.44581492977005
H        -0.08957787105777   12.00880823220720   10.08673551190597
C        -1.85626190341549   13.21181746961493    9.99455244599176
H        -1.44123576739814   13.90538210652886    9.27828063343542
C        -3.14642627670588   13.39225929572451   10.46858476529291
H        -3.73784218961320   14.22933105467790   10.12656592830850
C        -3.67656727944508   12.49465598827452   11.37383870678645
H        -4.68174263841138   12.63437865165711   11.75226366046823
C        -5.18619943328921    7.87824877082267   11.72832425909517

