76
CSD_code = HEVWIR | q = 1 | S = 0 | Stoichiometry = C31H42NiPS(1+) | MND = 8
Ni        0.76475071579112    3.99356702802088    4.38950337606279
S        -0.75207910315473    5.37750928135494    5.06318011567298
P         1.68355896947685    3.99454460405157    6.34295380234691
C         2.08366938457907    2.43914837950090    3.01508291491866
C         2.17642895399470    3.72913577850517    2.46522721245058
H         3.14895971213199    4.11872840882366    2.19491036208451
C         1.03226956151035    4.48906096972385    2.19704881768421
C         1.12218326266004    5.81662006977884    1.50983313624496
H         2.13770315646458    6.20307474829882    1.53792438112617
H         0.44978837576249    6.54380348975426    1.96155611650932
H         0.82517262065785    5.70096429123475    0.46702446282649
C        -0.23547934731953    3.93654836521708    2.52834334486842
C        -1.44697222663963    4.78789996758297    2.44042433364328
C        -2.25930769255721    4.91966397200355    1.32915571961817
H        -2.00657872442372    4.36259172279565    0.44024353590938
C        -3.37811124742106    5.75126694756117    1.35243732898112
C        -4.24118416260678    5.86306647374504    0.10643713593738
C        -4.79216878086699    4.47347152221444   -0.24459104758502
H        -3.99437782546786    3.77015464001646   -0.46806162631272
H        -5.43633564573975    4.54044629632194   -1.11751986985630
H        -5.37686959230198    4.07839110527521    0.58361778056907
C        -3.38103347738301    6.39137024328138   -1.05061767090168
H        -2.96056522699128    7.36217764483667   -0.79642103039604
H        -3.99089477518070    6.50523166617501   -1.94311129950663
H        -2.56416999004174    5.71409285526305   -1.28528862218475
C        -5.42538573290172    6.81394936255689    0.29558164231448
H        -6.08433082874590    6.46972204755695    1.08922772001578
H        -6.00452228384401    6.85412455976143   -0.62376808026386
H        -5.08840858892082    7.82301283763134    0.52098924591793
C        -3.65504528210645    6.44702727178554    2.52574783724906
H        -4.50748411976325    7.10294642195399    2.59127229542318
C        -2.85300657265764    6.32833754062264    3.64997378254698
C        -1.74685668090661    5.49270607545673    3.59988985651477
C        -3.09327083573320    7.04403192113327    4.92466602762059
C        -3.88633868184563    6.45343097615268    5.91287459906866
C        -4.08351783298075    7.12780284798136    7.10602263982407
H        -4.69826787311969    6.67700256375150    7.87163161586109
C        -3.51351127399465    8.37344919605598    7.33649015063678
C        -3.76184460184319    9.10587875821970    8.61656208376211
H        -4.05583325938339    8.42220165034217    9.40885079638963
H        -4.56749826091172    9.82738991330454    8.47741964385054
H        -2.87613702766865    9.65456134330618    8.92877201482136
C        -2.72431608998286    8.94061991322528    6.34270277714382
H        -2.27594474110792    9.90873773003904    6.51289844633807
C        -2.50605514546552    8.29537431633188    5.13803698331079
C        -1.64330655173620    8.91118729755005    4.07867085447219
H        -1.37553754296740    9.92990317049669    4.34429370139178
H        -2.15709964587144    8.92132051044411    3.11881828824971
H        -0.72603738494131    8.33363190979075    3.96022670154764
C        -4.49600990750129    5.10446790736171    5.67945383128263
H        -5.16397954826869    4.83745410758049    6.49344387151838
H        -3.71507245800506    4.34663998470857    5.61067347817471
H        -5.05641279140057    5.09012415642718    4.74606558568087
C        -0.35669656071616    2.59297266396866    2.97859158215047
C         0.81430760647124    1.87367120583324    3.23390475145600
H         0.74619353761257    0.84170324661338    3.55207275555615
C        -1.70639176996179    1.95710740396168    3.10508222525524
H        -2.09337047098231    1.73545881653125    2.11014044257749
H        -2.41578447643013    2.62606529917423    3.58892493329273
H        -1.64951523465444    1.02875986573048    3.66741042617135
C         3.31385374265473    1.61171605972288    3.21322326652984
H         3.21580129666042    0.94957156760386    4.07108004702649
H         4.19781192964357    2.23345076127234    3.33379633510456
H         3.46477980583080    0.98672735736887    2.33181290989496
C         1.26989874260662    2.48940202264321    7.29663627998308
H         1.54812676612502    1.59941019682210    6.73571622297944
H         0.19798882225501    2.46659444408427    7.48437919946028
H         1.80445635571136    2.50212826592933    8.24502081966406
C         1.33423312323443    5.33234480265907    7.52834024235752
H         1.88642759599151    5.15058976502572    8.44919259838901
H         0.26725403879249    5.37007852416620    7.73872784902880
H         1.63339331166292    6.28845678384956    7.10364253011346
C         3.51351720677540    3.96817674385535    6.28869925954201
H         3.90144114253144    3.93241426993510    7.30545193686274
H         3.87722664332332    4.86829404008390    5.79680860044742
H         3.86332149450555    3.09693913029124    5.73986368478014

