99
CSD_code = HEVWUC | q = 0 | S = 0 | Stoichiometry = C50H43Cl2N2PRu | MND = 7
Ru       11.16815221700526    3.52787014153671    4.36749434364450
N        13.28067999489925    3.60741832179284    5.19369708606838
N        10.79168050820616    3.10369048217613    6.44416119739760
P         9.37295478307853    2.36189985390700    3.39989279381698
Cl       11.82666541504827    1.22077687743855    4.06618525468163
Cl       11.64551192144390    4.19780929070668    2.12877832712286
C        10.24640223694635    4.19929595155880    7.27122998990891
C        11.13512792162953    5.41434658475443    7.33334335376388
C        11.54946741094273    6.06029802428692    6.15984614351256
C        11.15825419449874    5.62963052690292    4.82277171391774
H        11.67763137806531    6.17288781047675    4.02972614555216
C         9.83802378128158    5.22654358730205    4.49415178136686
C         8.74664439368286    5.14516835595130    5.46077550315258
C         8.90352532771823    4.67087535432327    6.77217680064838
C        11.52203694530603    5.91044014438713    8.57140213881984
H        11.18698030337457    5.41045120494126    9.47000354292432
C        12.33683576423130    7.02238343211523    8.67346233644893
C        12.77051451529943    7.65616327717056    7.51969155619781
C        12.37922507166811    7.18038532500823    6.28553395445165
C         7.81766834343918    4.65559050314751    7.63805045250681
C         6.56818308313436    5.07842493311224    7.22486692143238
C         6.39899743033692    5.53384813510248    5.92690649874227
C         7.47378999711361    5.56976305310078    5.06356853682362
C        14.35599940357415    4.55575791468632    4.85785347002652
C        15.69483995632249    4.13468128927238    5.41910590236835
C        16.23996515380080    2.87809300237671    5.12146490292248
C        15.64713108760379    1.95141024908295    4.17237811872221
C        14.99837322452072    2.27731268592361    3.04278323148880
C        14.75907124993420    3.61898897362518    2.54313739830390
C        14.51464340340765    4.72337837216163    3.36930754157425
C        16.37286428929140    4.99027201358212    6.27742201779065
C        17.56815185985927    4.61706815945515    6.86152303759943
C        18.09122792312725    3.35854744765617    6.60605373282811
C        17.42984441821726    2.50178333976009    5.75239486254207
C        14.40676607102751    5.98753288874912    2.80640377610285
C        14.49204827220474    6.16927709440647    1.44030063447790
C        14.67429270443652    5.07303400492778    0.61273145327898
C        14.80217330568682    3.81563189712473    1.16023905320951
C        13.25074408558999    3.33708525641240    6.63380204942156
H        13.25525564508635    4.29168439168865    7.16688744240406
H        14.14192101339948    2.77615539606657    6.94878234735959
C        12.01292506824436    2.52029152571770    7.00797352607636
C         8.69206863673246    1.15532123881637    4.59039526494963
C         7.98101606506062    1.63134124181290    5.69112885128640
H         7.77548684847578    2.68923091786010    5.77447651163865
C         7.52404977866283    0.76075512231374    6.66496042742604
C         7.78420051238998   -0.59544936226578    6.55830055323669
C         8.50384874899316   -1.07377021154836    5.47524832371748
C         8.95884661067256   -0.20709456437955    4.49771743966201
C         9.55369606375743    1.33600586316419    1.89321762011095
C         8.42823575788551    0.60921847667927    1.50433963961318
C         8.46654892319606   -0.18440749563241    0.37526609861354
C         9.62359443346208   -0.25436564260521   -0.38503491653110
C        10.73683004778222    0.47559589628004   -0.00981897801412
C        10.70622723728851    1.26963626173044    1.12433245221472
C         7.89296005383256    3.25938920510668    2.79796452017991
C         8.14968988745830    4.16579693156073    1.77003513816502
C         7.11770093649941    4.87979785692807    1.19241420679513
C         5.81570870493228    4.69121269270274    1.62957123478723
C         5.55368533820496    3.77804085756275    2.63574664092347
C         6.58499318876536    3.06110790388874    3.21898194911854
H        13.51271371955629    2.72443641542003    4.71846833674127
H        10.07680569666196    2.37091540315157    6.43611091520260
H         9.50203244135951    5.52999074100967    3.50131147280372
H        12.63419905330444    7.38925709126442    9.64399010119978
H        13.40867339377286    8.52509385909068    7.58601179705182
H        12.69860917778940    7.69264231633160    5.38865382472348
H         7.95268458131126    4.29574400363198    8.64898006726526
H         5.73332543684623    5.04875395961703    7.90856838711670
H         5.42799025829502    5.86410538915632    5.58965052484920
H         7.33993379418001    5.93983182289303    4.05799423491417
H        14.08436252981870    5.52196648069094    5.30126511272845
H        15.85335011632020    0.90528611494692    4.36169960306298
H        14.70144213823012    1.47797451107055    2.37636420479277
H        15.94738583726238    5.95974923634666    6.49771916273784
H        18.08091293089005    5.29531257246268    7.52683169413851
H        19.01507852275449    3.05007865424419    7.07256049166812
H        17.84319268541408    1.52563199868600    5.54155787112974
H        14.23523573444107    6.83886455578383    3.45066257436316
H        14.38777139018949    7.15818095558409    1.01932564036515
H        14.70821390736941    5.20207511272842   -0.45869257130613
H        14.95121376110849    2.95965284053107    0.51773415617397
H         6.96544051949183    1.14575465282294    7.50645847192269
H         7.43004983544167   -1.27656630148982    7.31809209386213
H         8.71529781635220   -2.12972229953274    5.39214839880074
H         9.53099212420367   -0.58678047647995    3.66409642787430
H         7.52210513416060    0.66449554607680    2.09386293779693
H         7.59110749915715   -0.74805752767701    0.08568323447291
H         9.65200443361533   -0.87500424331627   -1.26904451083925
H        11.63872704348966    0.42984565886467   -0.60253456678753
H        11.57530693530232    1.84569983918206    1.40229944820019
H         9.17032078165093    4.29712822607848    1.43086669041622
H         7.32686832068088    5.58203416119716    0.39856321410229
H         5.00624067917643    5.24883612421554    1.18109900952720
H         4.53846095864409    3.61711854477673    2.96958758314484
H         6.35671754243989    2.34258483030392    3.99277727908192
H        10.11783929843566    3.81615405015872    8.29794625891650
H        11.94630405760721    2.44815763915411    8.10287598488976
H        12.11931106568232    1.51136727739683    6.59595059346781

