86
CSD_code = HEVXUC | q = 0 | S = 0 | Stoichiometry = C44H35AgN2O2P2 | MND = 3
Ag        9.55778098956557    9.95383750620039   10.66813547899948
P        10.04722836248702   11.15091057136070   12.91247107156379
P         7.08480971470468    9.82842611358418   10.63294720628213
N        11.57178441118594   10.33308740193369    9.59610012891298
N        12.13094897740966   12.53469999955760    9.23385656570992
H        11.19445125849896   12.76316549224669    9.55341880346915
O        11.00544494975029    8.20606101817459   10.01614325297654
O        12.52156553555384   14.74155122597162    8.96849076260903
C        11.87691493061733    9.00222133727794    9.59820700440082
C        13.16811316591649    8.57982490728105    9.14229309332641
H        13.37311576969692    7.52105449187254    9.14458636561459
C        14.08677562251671    9.49639174392220    8.74114670087552
H        15.06792102406595    9.19095540882170    8.40386089196387
C        14.64638312455250   11.91734696835581    8.38251677629360
H        15.63873733690555   11.65175574283082    8.04302528658980
C        14.26418942783125   13.21613904091389    8.43790184033196
H        14.92640800666230   14.01714664975574    8.15058247474770
C        12.94768177417451   13.59930815318812    8.88272955046311
C        12.47783635514792   11.21947146311116    9.20167153472985
C        13.77083168223089   10.87255099371006    8.76335160690224
C        10.30391028219656   12.83674347378022   12.26638561057168
C         9.40014284746507   13.28567937820999   11.30282286237039
H         8.58035648199115   12.64043638773521   10.99928333519857
C         9.53722113203369   14.54400118700933   10.74593005025858
H         8.83076321104250   14.88257078563218   10.00219870307544
C        10.59187259399493   15.35834272497233   11.12859473646247
H        10.71809463140301   16.32808819222248   10.67572171039511
C        11.49822941896506   14.91207018455940   12.07545218265108
H        12.32662946276867   15.54110373101280   12.36402921740963
C        11.35910939072317   13.65864402374361   12.64619003283959
H        12.07534385337039   13.31596898562285   13.37954803525814
C         8.82736118863741   11.42359586952161   14.24105804779107
C         8.12735659738218   12.61136991762846   14.41762670311785
H         8.34821373937111   13.46713061224356   13.79491334859032
C         7.14966584799150   12.69709411610031   15.39439990407743
H         6.61056683160537   13.62352628318629   15.53090402336228
C         6.86089987106928   11.60413441572437   16.19375450179582
H         6.09455934242036   11.67612958946763   16.95116142204740
C         7.55792101140932   10.41786916424148   16.02200968781341
H         7.33698155774348    9.56421715183366   16.64542649961809
C         8.53110679741362   10.32619805569440   15.04747457041485
H         9.07705271933258    9.40332147480274   14.90058074495957
C        11.57877786229312   10.87757154820682   13.85902553169428
C        12.63249260795567   10.27111485062077   13.18102502677294
H        12.49320617016294    9.96180786129016   12.15337511358097
C        13.84105004337758   10.06122350624821   13.81839757083919
H        14.65624883987631    9.59397126357245   13.28602746111445
C        14.00062837021622   10.44520537778978   15.14025755203841
H        14.94262788227815   10.27864432925467   15.64157277626851
C        12.95080170606074   11.04010129352008   15.82180401032939
H        13.07592670614756   11.33817785563015   16.85279045614237
C        11.74163543482621   11.26013826198837   15.18712161197298
H        10.92587407819782   11.72933677968846   15.71936484748060
C         6.30662466880446    8.62717771216360    9.50442063236034
C         4.93340489102844    8.39888572067541    9.50054295313497
H         4.28927982742057    8.97113428059543   10.15384915123066
C         4.40049353740285    7.44277766397221    8.65726391739554
H         3.33448508300893    7.26755125162162    8.64935102235622
C         5.23033538935094    6.70551585584475    7.82569979770774
H         4.80744175813036    5.95913275231684    7.16955617126781
C         6.59815108639137    6.92128921913240    7.83863051282795
H         7.24486656272890    6.34204833131110    7.19651285673110
C         7.13780104757509    7.88078988569307    8.67709778532817
H         8.20867685969967    8.05591968982157    8.70048319955245
C         6.66880484045392    9.00646421337120   12.20826835123128
C         7.58909721972992    8.06017084201452   12.65220156637956
H         8.50466002169517    7.90089661674461   12.08279377148809
C         7.33971977857959    7.33041795187980   13.79879452061128
H         8.05340526633887    6.59292168031730   14.13553293908878
C         6.17487974454011    7.55012052003305   14.51671808078341
H         5.97938592837928    6.98466410315061   15.41596317726927
C         5.25957441182265    8.49328138134954   14.08052778864622
H         4.35143493691488    8.66432766139825   14.64009313021637
C         5.49670569981193    9.21551508393328   12.92463514296693
H         4.77369527999220    9.94541158272024   12.58901797706094
C         5.97647883497200   11.26538559761526   10.58488246800831
C         5.30093318387185   11.62410733674465    9.42194287985149
H         5.35046393166407   10.98232040050896    8.55281325060881
C         4.56758490145755   12.79626846721830    9.38208376164619
H         4.03658043851741   13.06559974150673    8.48082293352432
C         4.51831317386211   13.62726972450489   10.48971887182043
H         3.94559098945556   14.54195466920605   10.45361879457425
C         5.21361996285072   13.28901374776234   11.64031975247870
H         5.18894324520091   13.94055428111145   12.50152274715081
C         5.94657704144523   12.11901907597695   11.68688089172360
H         6.49963952970394   11.85555809507429   12.57937491746970

