85
CSD_code = HEWDUJ | q = 1 | S = 0 | Stoichiometry = C24H54O4Si2Y(1+) | MND = 6
Y        31.39669653017595   -4.38774451606754   20.80906056386861
Si       34.42071123600936   -2.68357171738212   22.00506797438820
Si       32.50337989228266   -5.25347157667050   17.47856132132878
O        29.33073138432583   -3.65280037724761   22.50992919275083
O        31.37921585589512   -6.56134799642629   22.57373458275357
O        30.33537726791819   -2.09565627288744   19.59807685775563
O        29.13976034792360   -5.72891698266067   20.06943021338606
C        32.65084926772880   -3.21598260588865   22.43810904577750
H        32.08168575290674   -2.33478796536259   22.75262433919560
H        32.70641050482423   -3.86843553938280   23.31744152235274
C        34.37207815175947   -1.32217045487676   20.66167750366063
H        33.79262678864580   -1.63778441461020   19.79849207528100
H        35.37442154231376   -1.09417594298496   20.31508847568699
H        33.94704836852986   -0.39706575488506   21.03912064142272
C        35.37646090411002   -2.00003022447546   23.51351862839569
H        34.86744355979977   -1.15043052247155   23.95824574962809
H        36.37187681197420   -1.67110675396357   23.23263589752900
H        35.48919355960088   -2.75421583294142   24.28622464639902
C        35.35732558551583   -4.19991639624697   21.30918542196002
H        35.08254305561697   -5.11348610450236   21.83043651618546
H        36.42980891062741   -4.07570356099200   21.41646145001976
H        35.15180233654740   -4.34110448270794   20.25174012449584
C        32.51243552487414   -5.82463364669546   19.28405256293998
H        33.55280147322240   -5.93691831755803   19.60349197898499
H        32.06744495305521   -6.82208797082072   19.35166182532210
C        30.70913803193990   -5.32201700762690   16.79953398537291
H        30.46560680509808   -6.31891688213553   16.44590638371471
H        30.58026891211328   -4.64807318687919   15.95839359921495
H        29.97931446785761   -5.05131897604426   17.55971607798211
C        33.10183903597106   -3.43464686703472   17.44382757600149
H        32.51894832199329   -2.81224749325959   18.12161724217133
H        33.02710058643365   -3.01026310877452   16.44745791526404
H        34.14301601409053   -3.36535733164446   17.74351962022081
C        33.60823416436364   -6.28400100526061   16.31230210728575
H        34.64893374153051   -6.23661953717936   16.61622800739925
H        33.55055999027110   -5.92495305080946   15.28957227346415
H        33.31734770997195   -7.32986535038584   16.30795671085201
C        28.37683796394170   -2.60792948192587   22.35004947268720
H        27.36753025547561   -3.00132228364837   22.53874901770515
H        28.43814641151524   -2.24388100275695   21.32604743531965
C        28.74448076491475   -1.56410286993147   23.40833523956311
H        29.49486001464567   -0.87811935667816   23.01672203251242
H        27.87838112956951   -0.98810163478296   23.72350606006045
C        29.33228376586173   -2.41989417736414   24.54286010153013
H        28.68901371388607   -2.42901799909697   25.41970456233079
H        30.31203101774280   -2.05406285079533   24.84261030233246
C        29.43254110971784   -3.82493631252758   23.92339260485224
H        28.60066681130313   -4.45539136802952   24.26686859021782
H        30.37779142092903   -4.32412682577144   24.13473377550551
C        30.34184305732663   -7.22148150660733   23.29912141990155
H        29.39261922548855   -6.97339101353409   22.82301052854053
H        30.32973565158750   -6.86888663789706   24.34001615613461
C        30.70829123933462   -8.70009875015912   23.25143347998208
H        30.21000417480323   -9.27904242274892   24.02389413842511
H        30.46139647808898   -9.12265742457410   22.27676931469962
C        32.22447331426000   -8.63385694089726   23.44196796766481
H        32.47162061397617   -8.64369558347231   24.50272446733375
H        32.73968854649540   -9.46124039263854   22.96150193201627
C        32.60169462492567   -7.28230779022566   22.81432061065158
H        33.10475580132850   -7.39810402553137   21.85005787530917
H        33.24235651692025   -6.69293924975091   23.48027974530360
C        30.68504794923554   -0.76848466398072   20.00001648864779
H        31.47689710585498   -0.83923340418044   20.74599744637749
H        29.80272804235539   -0.27755936083492   20.43497765602494
C        31.11100219354275   -0.05280404997943   18.71585101206582
H        30.90267115189856    1.01260245083845   18.76636513215561
H        32.17787766808308   -0.18682546702183   18.54474256964075
C        30.28936663753809   -0.76315144203286   17.62699056624090
H        30.93203215428094   -1.13073872690452   16.83030536476555
H        29.54226594452218   -0.10638983832472   17.18738791229964
C        29.61909191447635   -1.92848531009643   18.37272377509090
H        28.57080859857809   -1.68516773215299   18.59901872586569
H        29.66497689450588   -2.86944627946150   17.82536681772207
C        29.14170068650732   -7.11887043818576   19.68825834234498
H        29.72264456546847   -7.67774851048519   20.42504183975439
H        29.62394641616951   -7.20882251318705   18.70826621149915
C        27.68150352420657   -7.55356151809940   19.61362979887265
H        27.53241521621564   -8.36822735789199   18.91046284728528
H        27.31759066204486   -7.86224579302990   20.59441259457439
C        27.00405764170058   -6.25670386940993   19.18006043788959
H        27.13743311981645   -6.09972962614986   18.10955588852115
H        25.94317466062412   -6.22753622050269   19.41302555387847
C        27.79947387352245   -5.22664370304000   19.97491764146026
H        27.83062347250644   -4.24311070940989   19.49902329618818
H        27.39178893455985   -5.12070228741350   20.98832463992545

