54
CSD_code = HEWGOF | q = 0 | S = 0 | Stoichiometry = C15H33ClN4Ti | MND = 5
Ti        3.22414163397501    3.22368221225873    3.22364039384266
Cl        4.51134912294164    4.51022484686938    4.51074056887979
N         1.97613981470941    1.97580764218928    1.97576151206905
N         3.90801952147624    3.68249102474199    1.52460824493114
C         1.91785900534214    2.62297795492909    0.67034971497710
C         3.31400567657291    3.14845716494018    0.32216900791742
C         5.34301263404567    3.90407638804995    1.44362765937435
C         5.79863559257435    4.54682782505115    0.12427396707507
C         6.13233685118378    2.60353624269117    1.70443342881154
H         1.54306263438252    1.93282016401331   -0.10400897680881
H         1.23744427084331    3.47409990836427    0.74208774965804
H         3.21046043115410    3.91900930198157   -0.46418278766141
H         3.92142061518943    2.33208385964194   -0.11538550897572
H         5.60002531368818    4.61132282191300    2.24728594377560
H         5.70980065080346    3.85577576192228   -0.71158262536076
H         6.84071534771886    4.84480338366341    0.21049489600914
H         5.77908179461979    2.15976160441678    2.64221851026402
H         7.19570058554025    2.81817873304803    1.78664272380474
H         5.20368901556751    5.43352327463499   -0.08526665943202
H         5.98864132645024    1.89115223692390    0.89129200050686
N         1.52523812183829    3.90777041982928    3.68222053890917
N         3.68253970593755    1.52464411987438    3.90793130855737
C         0.67077320070540    1.91759985655212    2.62303284400517
C         2.62335524117631    0.67041221926588    1.91761362234326
C         0.32265999004134    3.31373492504047    3.14853330695507
C         1.44408366559422    5.34273723513739    3.90391340579539
C         3.14851593934891    0.32222648902923    3.31387721286653
C         3.90356452859592    1.44384689967940    5.34300356670111
H        -0.10366386392018    1.54281789746321    1.93295735346617
H         0.74253577898809    1.23721964650568    3.47417094110358
H         1.93330469401094   -0.10394602271460    1.54261843604020
H         3.47463043393404    0.74219128991334    1.23739794590046
H        -0.46347599724377    3.21020209323855    3.91930668345062
H        -0.11511179787614    3.92110451440080    2.33223732569486
C         0.12516014008193    5.79809842077623    4.54770254891751
C         1.70384461712907    6.13237691558105    2.60336494885290
H         2.24818029203165    5.59991088381412    4.61058190950702
H         3.91899960697286   -0.46421733858998    3.21057268607632
H         2.33196636997504   -0.11518273668720    3.92114363351766
C         4.54608407605325    0.12448996913733    5.79892335946228
C         2.60282735527687    1.70552569305947    6.13173888970472
H         4.61098121065118    2.24734564935202    5.60001977019540
H        -0.71118748677736    5.70906378910625    3.85726865416387
H         0.21125433091204    6.84015973593665    4.84581035654821
H        -0.08349985365560    5.20290285593021    5.43444823710443
H         2.64129834507593    5.77913543957516    2.15891951314711
H         1.78619083304150    7.19573749409957    2.81796781070917
H         0.89019105634940    5.98864821295986    1.89158873192302
H         3.85468250015435   -0.71106815150519    5.71006962979161
H         4.84367594389301    0.21080403534343    6.84109512032724
H         5.43290539382545   -0.08555535737763    5.20426546962924
H         2.15942147152436    2.64346396543389    5.77843811133955
H         2.81727162536278    1.78756163647077    7.19516318989709
H         1.89026069221064    0.89262495212660    5.98790317373843

