101
CSD_code = HEWKIE | q = 0 | S = 0 | Stoichiometry = C36H58N2O4Ti | MND = 6
Ti        9.49649109708885    8.20309666934132   14.87962723044291
N        10.15205559377213   10.08833900247976   13.64327610532335
N         7.78206610983237    9.31689464097602   15.97028965232853
O        10.67582616663176    7.50314707385305   13.78538411027828
O         9.08110421258985    6.87282975696183   15.95445934636817
O         8.08720097695267    8.16388092219354   13.71892399924844
O        10.56975933767758    9.17511789257089   15.98360637661368
C         9.66764123494120    6.17191982717019   16.99098417422376
H        10.67455527982763    5.81498927437466   16.68068111680640
C         8.82069993381482    4.93860719985806   17.35603280693291
H         8.78386737405772    4.24783776130796   16.51736182420186
H         7.80610496884161    5.25451307993409   17.59175237776118
H         9.24658363439720    4.42707136575704   18.21626025386395
C         9.84281710770189    7.06835910985103   18.22804906870358
H        10.33319236838199    7.98361167860115   17.90271895600307
H        10.44501532495784    6.57172396241547   18.98646292731864
H         8.86700626458444    7.31292366615204   18.64676173987784
C        10.58877570199091    6.53196484639115   12.80986177403682
H         9.57811240920424    6.56532157692290   12.34851526273164
C        11.63231843827068    6.79863824598289   11.70952595670209
H        11.46546375932884    7.78355700730868   11.27711116767549
H        11.56710767869926    6.04712438335828   10.92611059230998
H        12.62982879182538    6.77803074565250   12.14430662104781
C        10.80388363828217    5.13420625837471   13.41708560083321
H        10.12756706990974    5.01515056526707   14.26259205094197
H        11.82873386661615    5.04476100080490   13.77379274601895
H        10.61063064564759    4.35557746972830   12.68211454686586
C        11.19441511273335   10.65368866419074   14.24066971258360
C        12.02431404649954   11.55171234725199   13.56632409927648
H        12.84391562347625   12.03567690156090   14.07372158771460
C        11.79495651324285   11.80968350220321   12.22869256756071
H        12.43114114449809   12.49295761387659   11.68389282595304
C        10.74100843038578   11.16485698455174   11.59780828275490
H        10.54024289236081   11.31759967454912   10.54851744494552
C         9.94478726443509   10.32341573283515   12.35560527698740
H         9.10574044074452    9.80130865120200   11.91849364763951
C        11.37375081641875   10.24800842326818   15.70099821838486
C        12.88526766539044    9.97334597547997   15.99273294756353
H        13.42731118217463   10.89354653246670   15.74625464477183
C        13.07319221794147    9.73384914799415   17.49061915832661
H        12.45688437107891    8.88889759225365   17.79703074905740
H        14.11868069152401    9.49682185210697   17.69857401432218
C        12.65962726247600   10.96792435561071   18.28561570794970
H        13.26962479591449   11.82538364561100   17.98728138044089
H        12.82486472159734   10.79590097419772   19.35212326787795
C        11.18513742788902   11.27520599411481   18.03579504994574
H        10.60976698061365   10.39767907020010   18.34833005403230
C        10.95218092437134   11.49505075764608   16.54206379278093
H         9.89120750625326   11.68197343366083   16.34854043650291
H        11.52021270812433   12.36811130115575   16.21081348765085
C        13.46799031709714    8.84982323125813   15.10971575895185
H        12.98471429163377    8.92031139663132   14.12746679519456
C        14.97382562335162    9.04870560185566   14.92074874432056
H        15.18693632113889   10.00966790186468   14.45590326659886
H        15.37999087277124    8.26683155388615   14.28273568098966
H        15.49252350668120    9.00755925298619   15.87637321323900
C        13.18215518567128    7.44850599795651   15.64324471193374
H        12.10356621637328    7.32383382881250   15.74623739600466
H        13.67622326319753    7.27725883450015   16.59733028876129
H        13.55112497995195    6.70980045326052   14.93341457358036
C        10.71900880649037   12.48470152508127   18.84194778588672
H        10.86288673714618   12.31181908176883   19.90654905667672
H         9.66376145119423   12.68265734375881   18.66438673445037
H        11.28499368546819   13.37077294875747   18.56048376668788
C         6.63293028974211    9.08317897172409   15.34662828519972
C         5.40479645646370    9.35219794433615   15.95536250645765
H         4.47857951716576    9.18073309883858   15.43003666719061
C         5.38296418556443    9.83296163727998   17.25008523055026
H         4.44369505192303   10.03602469275374   17.74494043559711
C         6.58915166560350   10.04690364482805   17.90191331493322
H         6.61831251037655   10.41524396535452   18.91577596562211
C         7.75905845284768    9.77988823380170   17.21229242054214
H         8.72602441573006    9.94180842142432   17.66716304719998
C         6.79286387543941    8.55952121092645   13.92189254468900
C         5.75058472346118    7.42925263105306   13.63973420850883
H         4.75797140729835    7.86128463153667   13.81237375320853
C         5.82193069767820    7.04802555285929   12.16147735802986
H         6.84294201316184    6.74758902529813   11.92365949424291
H         5.15090134332659    6.21055971000875   11.95997315597583
C         5.43878547204565    8.23805482401340   11.28903668950980
H         4.42459959060406    8.56895294543554   11.53064120198430
H         5.45337753244639    7.94876927802759   10.23526262731450
C         6.42594483773069    9.37808947043261   11.52408805374683
H         7.42144674737375    8.99835146051421   11.27200727764655
C         6.42318173826411    9.76893924512401   13.00118744436564
H         5.43453031718716   10.14730805981664   13.27437700193962
H         7.15687911196559   10.56048918941073   13.18375236068250
C         5.90012111655164    6.22694385895882   14.59392491623764
H         6.20931242440130    6.61840709618145   15.57133624649278
C         6.97511883413569    5.24055407567359   14.14834431453583
H         7.92140527271483    5.77338439024152   14.06092653798585
H         6.71793214204521    4.77321019262837   13.20055115087373
H         7.07879976216593    4.45537846003647   14.89434524376990
C         4.55820986789644    5.51149000239002   14.76558094317935
H         3.80342265680625    6.18452785421721   15.16878008201189
H         4.66394115935014    4.67211469306001   15.44943519141736
H         4.20096264721945    5.12757056150659   13.81230968505275
C         6.11258475859736   10.58523348856407   10.64420703437583
H         6.14561764574710   10.30989290765666    9.59205806778085
H         6.83187026836324   11.38384002793472   10.81453942514438
H         5.11790850644357   10.96828148219906   10.86511560226829

