145
CSD_code = HEWKOK | q = 0 | S = 0 | Stoichiometry = C46H90N6O2Ti | MND = 6
Ti        3.45343817138232    3.81250209597278    5.45081036818493
O         2.62020642251246    4.79266833817788    4.29891064417343
O         2.03731411406757    3.06459503807177    6.17048056533193
N         4.56511723022218    3.13673969780685    7.11735677770834
N         3.91180612356094    5.21694620094570    6.86160919429747
N         4.70292904372688    4.59231071689942    9.04866050266989
N         5.31272122343446    4.16986762484420    4.34513919580042
N         4.08043552497729    2.35322937261663    4.17320056664717
N         5.93353012642838    2.55096166911112    2.65310146257795
C         4.38704233805605    4.30008849467588    7.69555964513940
C         5.21086792841627    2.01092567589166    7.74944724239020
H         5.65371869593760    2.30089154136019    8.71522620372944
C         6.33024018549438    1.50281118251878    6.83084201660138
H         7.08111567208584    2.28731355878950    6.71365936197394
H         5.88420207857828    1.31871252735456    5.85141323872828
C         6.98925760287381    0.23695542177248    7.36803561510311
H         7.77001346262226   -0.09277004211975    6.67821910683679
H         7.46477231904127    0.45225328462482    8.32904730605536
C         5.95506128767732   -0.86651198916691    7.55601029664566
H         6.43160905584334   -1.76552566493035    7.95461417895625
H         5.51452673873881   -1.11915742140762    6.58912098724631
C         4.85916397902631   -0.38961311469296    8.50168388716174
H         5.29523847733341   -0.18686275691965    9.48382200537386
H         4.10700092334144   -1.17200938710367    8.62766933362435
C         4.19734493411727    0.87704562186373    7.96838305959735
H         3.42324943451902    1.20068800432178    8.66661180607032
H         3.71564571671928    0.68608160444075    7.00716924137253
C         3.30570031590511    6.44685241963023    7.31419500308388
H         3.50116045241396    6.61082513987763    8.38502119584460
C         3.85531038808351    7.63639364685127    6.51714172664349
H         3.70326279081601    7.41768001526699    5.45730534443919
H         4.92901163716309    7.73464276837933    6.69623528215919
C         3.14724814664562    8.93609724700856    6.88629058031896
H         3.32649341876248    9.16275256374341    7.94079511306309
H         3.55505690284182    9.76028476344176    6.29580969546497
C         1.64658005337034    8.81321552234028    6.64455893618794
H         1.46598594854669    8.62604667962216    5.58382369763220
H         1.14563221706526    9.74630308804980    6.91352685340383
C         1.08021094192552    7.65794492531924    7.46327585371959
H         0.00691194753227    7.56142297943457    7.28188867624568
H         1.21892551995964    7.87076076457388    8.52744337679883
C         1.78668042644501    6.35372944902963    7.10617508497833
H         1.40928071974711    5.53454058463118    7.72325642462268
H         1.61317049451581    6.08863015841334    6.05724980632233
C         5.77282102157116    5.55238844477206    9.26656909513974
H         5.85375101033432    6.10238668712153    8.32128233926564
C         7.13292542016231    4.86875326523476    9.48978329710856
H         7.18925162185992    4.40133782062693   10.46838760905008
H         7.92995086815532    5.60579226613955    9.41636220623483
H         7.29324946672219    4.11197331956387    8.72630473530141
C         5.52322339168130    6.58046320848996   10.37256079165729
H         4.57952017555737    7.09861753476339   10.22433828157673
H         6.32213163996017    7.31914909056757   10.34967668477585
H         5.52189273604948    6.11949539878387   11.35589219693245
C         3.94943905680332    3.89837723718914   10.07820049242761
H         3.44796775926564    3.08389494399842    9.54447491253747
C         2.83084712068739    4.76087871330958   10.68952918815605
H         3.22550469244468    5.52476391338168   11.35254668713984
H         2.16053137178966    4.12490751341853   11.26407537415726
H         2.25687646058710    5.23876758937038    9.90019909091610
C         4.78531266527960    3.27711737226905   11.20139973272632
H         5.57526037738181    2.64612998739289   10.80323166678697
H         4.13840408613846    2.65953896873757   11.82125108294628
H         5.23088199461803    4.03825300995687   11.83562020492693
C         5.11828743915395    3.04328695049437    3.70948447890073
C         6.50789812615261    4.96635193154563    4.19379228518084
H         7.24805401406995    4.44540703744154    3.56738211628094
C         7.13038384191572    5.21017478840572    5.57426000747258
H         7.38701209514712    4.24961572137639    6.02497615706961
H         6.36624630154262    5.67409116864508    6.20006974334422
C         8.36927565177488    6.09550835954267    5.48863302631715
H         8.77963396943444    6.25407498604158    6.48893750282117
H         9.13583112114134    5.59363653333136    4.89140197178107
C         8.02938258647510    7.43530105644390    4.84506552556704
H         8.92757658660203    8.05253233174367    4.76450003624742
H         7.31110359412008    7.96696200959358    5.47302493353525
C         7.42176195679827    7.21127543234224    3.46483142851127
H         8.16138232878238    6.73245576876092    2.81760281188190
H         7.15746287711697    8.17069760137757    3.01340585423051
C         6.18185743367886    6.32793721603158    3.56147696623598
H         5.42778100761797    6.80804827286298    4.18683935422321
H         5.75136766798547    6.18785080394938    2.56751997412740
C         3.41101805012985    1.35131345065488    3.37441694103725
H         4.07513200779128    0.97166094784388    2.58329325616954
C         2.98047599395977    0.18385231776081    4.26854130412626
H         2.39082254463951    0.60035478145454    5.08981832296788
H         3.86907564138708   -0.29063292689391    4.69300541604686
C         2.16470235251185   -0.84900455992861    3.49688828594084
H         2.78459944483512   -1.28941318839898    2.71092973384671
H         1.85828065968691   -1.65475085702584    4.16815991895066
C         0.93738143178252   -0.20234230301849    2.86399204441892
H         0.36551366401737   -0.94861191958148    2.30716041496031
H         0.29343331317207    0.19877386861647    3.64969913983309
C         1.36450651437997    0.92981485888319    1.93622318517825
H         0.48478082206821    1.39834672940059    1.48827374898594
H         1.97078648573572    0.51837577404204    1.12380712374580
C         2.17493646117091    1.97208763947886    2.70132817197105
H         2.50151070904451    2.76598248228453    2.02383167178299
H         1.56969625982628    2.43561575424697    3.48467923920451
C         6.65101667384327    1.31425097613779    2.91935921607316
H         6.09853416438098    0.83935383666767    3.73945396207717
C         6.69304781410053    0.31596032916993    1.76011701400016
H         5.69655750300701    0.11128626874546    1.37802663718208
H         7.11702105647090   -0.61947429772524    2.12014733708350
H         7.31635902119636    0.67364692836466    0.94581547536405
C         8.07713378189421    1.56280696802331    3.44023347258367
H         8.73352338803740    1.92103159020495    2.65267884871189
H         8.48918748641310    0.63579839219465    3.83353421280068
H         8.05375421387331    2.29559491985579    4.24239324923235
C         6.02252062259852    3.34023832421824    1.43765829049118
H         5.56063204132427    4.29776799560609    1.70350433819114
C         7.43996348300892    3.62705392897128    0.93011065601343
H         8.06414782992630    4.05257335864242    1.71073594059389
H         7.38250644374797    4.34455155860122    0.11393219109943
H         7.91638982895051    2.72668370679403    0.55260410156953
C         5.18621356953704    2.76172131844260    0.28076756778272
H         5.67423462027388    1.90934484945849   -0.18158445908386
H         5.04812063309421    3.52640125436718   -0.48126815918642
H         4.20796596070255    2.45455781243575    0.63911316705832
C         2.53775306208691    5.58491320024094    3.18342231097897
H         3.12186471234234    5.13964488753658    2.35223228964301
H         2.96895239306320    6.58615802625196    3.38481137719249
C         1.07898817624450    5.76683815114001    2.72384040562773
H         0.65440698975302    4.77856182345246    2.52942080668769
H         0.51318857655087    6.21690191179850    3.54443380262405
C         0.96352358384815    6.63672149641772    1.47622853831202
H         1.39513039173830    7.61984086170897    1.67923134231499
H         1.54135700982001    6.18387300150346    0.66699119317038
C        -0.48581474510999    6.80108544270927    1.03353731452413
H        -0.92588610965472    5.83297979810674    0.80501228833543
H        -0.54800256278716    7.42531287164149    0.14498314364454
H        -1.07419441664311    7.26585780372495    1.82150475789182
C         0.68434088444138    2.95977221749699    5.94059497204395
H         0.45540844315472    1.96387453054422    5.50710802094145
H         0.35379881316053    3.73349945528343    5.21613230684875
C        -0.16141936408487    3.09531531408502    7.22514374931115
H        -0.12171163394661    4.12770787565867    7.57642722930122
H        -1.20210641912641    2.85839865956251    6.98947879105321
C         0.36411641701096    2.17324010789163    8.32084678396348
H         1.42992536321246    2.38343763233494    8.43876409156408
H         0.26145641666996    1.13350757879219    8.00059616384618
C        -0.36158598013580    2.37582023705248    9.64447616869322
H        -0.25039232248064    3.40212131039166    9.98824499041063
H         0.03976340597097    1.71248653365425   10.40780644065093
H        -1.42417624665108    2.16700213567932    9.53436343720065

