83
CSD_code = HEWLEB | q = 0 | S = 0 | Stoichiometry = C40H37ClO2P2Ru | MND = 8
C         4.80842768386235   19.35872184790084    6.51042782654954
C         5.78265497437257   20.34909267519163    6.49348064956773
H         5.50433200004468   21.39309482849801    6.48296151233452
C         7.11231566579688   19.96658006185839    6.47570421865298
H         7.88185470829442   20.72473663583450    6.46030720870872
C         7.48398654545402   18.62241543953773    6.45963884112559
H         8.53366804896029   18.36684037024929    6.43349100748015
C         6.53779115940501   17.61360695836973    6.47043198417620
H         6.83349570136736   16.57318579560630    6.44376973616396
C         5.19031135156024   17.96179470294350    6.52184748565297
C         3.95221965500134   17.16664286669781    6.54213987353280
C         2.87799472179279   18.07904833194580    6.38463573093389
C         3.37831463275254   19.31231672153092    6.66792297434224
C         2.84496941315479   16.13745824162665   11.32412520111197
H         2.06211119148291   15.43202763697380   11.03704656803870
H         3.45885215195197   15.67613954020736   12.10218195316716
C         2.22809281522483   17.40737092897256   11.90290624925662
H         2.85247794160072   18.27778379245568   11.64337963436465
C         0.76098059784928   17.66938750984252   11.48652494326472
H         0.29838569786916   16.74121671866167   11.11304002581143
C         0.57164148105840   18.77449964958222   10.45079170849830
H         1.13713431724852   19.66569747498846   10.73564874359593
H        -0.49019178916833   19.03767627206041   10.41177698495183
C         1.07028855489041   18.07995087358260   13.74028911208518
C         0.47470446078572   17.47411340894155   15.00803091550088
H        -0.38746592188356   18.05674825758539   15.31536224448140
H         1.22297993984609   17.47514141381640   15.79385448611062
H         0.16560058215659   16.45227865437421   14.80819937580046
C         1.50290060853606   19.53382032933029   13.97033277336107
H         1.99062339224769   19.92990810251668   13.08363370627974
H         2.19967242556286   19.57697388904181   14.80223521803533
H         0.62764633274570   20.13681519931117   14.19322520120175
C         0.34732145536369   19.60533753067434    7.78382339304183
C        -0.57626578084579   19.35523934755497    6.77683831892688
H        -0.87331922798510   18.34014088924054    6.55513296756121
C        -1.10541910471122   20.41078623680043    6.05348026040448
H        -1.82366643297135   20.21569139730971    5.27037821992730
C        -0.71223220202994   21.71003197194774    6.32496987058108
H        -1.12662247800391   22.52925233017543    5.75575604640189
C         0.22378342154986   21.95931794081625    7.31747621065893
H         0.54165765952770   22.97177382294036    7.51907231275121
C         0.75729334664675   20.91178852525153    8.04271367481819
H         1.51235261322456   21.09132680318717    8.79749856010461
C         0.11983654209164   16.81622123077205    8.40440249544681
C         0.71449786645130   15.75424857051237    7.73520630288805
H         1.75834002093895   15.83617647211270    7.46039369628655
C        -0.01816614696830   14.62137964457448    7.42646682918752
H         0.45290941523448   13.80127574018600    6.90452995027967
C        -1.35262554345167   14.54370871194694    7.78768104224235
H        -1.92801800828914   13.66082688498093    7.55099468819933
C        -1.95367963269804   15.60349410926111    8.45009353821509
H        -2.99625856374724   15.54486023686349    8.72661047950270
C        -1.22583229747277   16.73858081000627    8.75629596019605
H        -1.70475623143020   17.56461132744963    9.26129036880222
C         4.18440379647785   14.87001495221612    9.14389464922609
C         3.17085854900107   13.92457356514038    9.02442971242048
H         2.18773546877345   14.12476390045744    9.42390221375566
C         3.40776809407493   12.72380108871737    8.37923487349608
H         2.61375052249996   11.99560709759934    8.29819585475304
C         4.65236342024318   12.45489391146991    7.83558171921972
H         4.83329888843333   11.51794410569979    7.33014579330765
C         5.66313828965735   13.39694236115898    7.93662509519199
H         6.63507600451256   13.19600342414517    7.50951371360743
C         5.42975467083401   14.59684745850137    8.58108503272610
H         6.21916697509315   15.33334581477084    8.65386780447095
C         5.54456375249672   16.82701225006116   10.59310173556959
C         6.08951460173715   16.01437441698886   11.58365711789218
H         5.52371548664675   15.18101738397051   11.97635738287824
C         7.36452693117891   16.26100791230789   12.05625035814744
H         7.78000525748521   15.63207539284129   12.83022561249681
C         8.11334071589181   17.30669422124936   11.53832363309390
H         9.10857060118957   17.49487068881165   11.91333187985710
C         7.58781740672312   18.10387397276478   10.53629474384839
H         8.16921737973165   18.91375452064706   10.12084364858060
C         6.31012817330576   17.86205871180076   10.06561931662308
H         5.90135263475498   18.49363045488760    9.27903803076203
Cl        3.70071184377791   19.93065171165594    9.97247826806560
O         0.10725965082376   18.00951888068229   12.69429679833451
O         2.14762430529785   17.27987519513248   13.31064405286412
P         1.13151709923141   18.28686293376864    8.75858583606899
P         3.89975552635895   16.52634483167369    9.85998438185305
Ru        3.35219827494293   18.20551227149964    8.40680192217562
H         3.94516394657869   16.10437090481231    6.30973953817007

