81
CSD_code = HEWNUT | q = 0 | S = 0 | Stoichiometry = C26H44Cl4N4O2Pt | MND = 6
Pt        4.48539129748554    7.43586892483493    7.98955871315412
Cl        4.99893032516678    5.43213494967802    9.15065161325824
Cl        6.63495383397757    7.36953753693127    7.00010108143257
Cl        3.97327717202615    9.44776786824774    6.83503744391742
Cl        2.33108587937813    7.49685146420415    8.97684541112781
O         5.91708210616017    9.87432902313574   11.16194130035751
O         2.87185706439862    5.14088942957498    4.79391605344830
N         5.08612831776889    8.39644377133189    9.64460896573675
H         4.64271688343358    8.00715927578061   10.48963758996832
N         5.16046727863247    9.11947705361081   12.10267273197744
N         3.85962129552173    6.49285636131307    6.33389954355365
H         4.24305550529990    6.93011335981827    5.48293112297300
N         3.54020437723826    5.96646135879250    3.84618039533123
C         5.80545771379691    9.41457355928137    9.91603864730907
C         6.62635111170657   10.19110112750302    8.94248372591550
H         6.51840012393029   11.25258742070940    9.17121811862128
H         6.26975811436112    9.99448187363984    7.93200578398340
C         8.09753549140197    9.78118311646626    9.06298685850823
H         8.45997063038155    9.93190184545281   10.07716338523070
H         8.69420171502627   10.38158280593771    8.38279095366484
H         8.21352826586089    8.73594356413925    8.79071904899130
C         5.18656960281556    9.53576690079422   13.29133506266190
C         4.39017179240335    8.86593852648544   14.37515932646529
C         3.91910778505412    7.46219173395590   14.06284654926036
H         3.26597408188208    7.47510634557727   13.19440592249651
H         3.37037376078543    7.05144270681214   14.90657784907702
H         4.76437436896323    6.81637564817175   13.84168149913387
C         3.25266356357171    9.88210346593326   14.64259562277105
H         2.77785925900057   10.18413869045825   13.70959057460108
H         2.48796513935671    9.42270393964556   15.26695346601980
C         3.95780854063547   11.05333860433235   15.35190840479017
H         3.58475798807243   11.19873656941760   16.36459911383206
H         3.82722744424668   11.99468673471556   14.81843740332643
C         5.42861468748190   10.61511308644208   15.35762082876070
H         6.05267159967663   11.16229494170774   16.06222249236719
C         5.90409356073669   10.70035700662053   13.90381057075760
H         5.63011425317026   11.63590668216000   13.41243947624932
H         6.98415849566831   10.58667071698705   13.80037038826397
C         5.33199828099055    9.08994704325948   15.58820614312820
C         6.66794682278742    8.35809843417854   15.44656669143022
H         7.06005025050129    8.40001620061768   14.43461639771030
H         6.54503346902866    7.30951997578657   15.70726883864379
H         7.40331106990219    8.78956530928681   16.12297323649218
C         4.73671479193074    8.70378593747433   16.93900804743179
H         4.62950022854761    7.62336756437188   17.00201175770484
H         3.76502791189316    9.14966299268324   17.11706465839162
H         5.40851410754461    9.02263835806320   17.73357247208799
C         3.10087176530876    5.50583445482360    6.05535191530178
C         2.36285933693779    4.66184011505364    7.03941110182999
H         2.50794211239117    3.61507712425628    6.76613272846675
H         2.76465784567004    4.83778141442505    8.03672433959531
C         0.86966119559291    5.00134713362116    7.00909109522634
H         0.71785785600877    6.02946766177925    7.32554716612727
H         0.33868868899941    4.34876652656562    7.69572655847232
H         0.46244137436972    4.86802757610404    6.00968533410351
C         3.31276624989986    5.70810337544531    2.63433021696002
C         3.91778479197796    6.52748178386595    1.52969685989185
C         5.11400472379623    7.36663736740116    1.92345212435820
H         4.82737016005745    8.08732138644143    2.68463582521373
H         5.49877487899752    7.90435812669935    1.06055996657317
H         5.90227099030587    6.73944269146725    2.33065156298230
C         2.70857487095800    7.33688259289461    0.99995525508551
H         2.17717947914303    7.81838105373609    1.82037046835753
H         3.05567051576867    8.12051487719212    0.32824882374559
C         1.84647396818987    6.28681366529205    0.27418135814784
H         1.75666919550217    6.50034334711317   -0.78986855882444
H         0.83706879861230    6.23207771956174    0.68161199873284
C         2.61748499793780    4.98200200516359    0.51727681617903
H         2.33608030898098    4.16890693820659   -0.14987415613920
C         2.44875843323611    4.65741660703767    2.00484573586862
H         1.41627203397533    4.73629530674105    2.35088170546261
H         2.80082226552009    3.65863328206067    2.26697523039615
C         4.09294878783597    5.43544594235674    0.44051300830776
C         5.09426384489168    4.35057332787257    0.84197896664916
H         5.00738782435221    4.07018123994157    1.88762399339555
H         6.10931034190717    4.70612715065348    0.68139936820438
H         4.94736071969645    3.46252426968614    0.23013273240784
C         4.50888592601851    5.96087464583806   -0.93034681910690
H         4.46943541233367    5.14940208699158   -1.65430154608038
H         5.53153092600022    6.32870889197850   -0.89205217222310
H         3.87479201937089    6.76448850573524   -1.28658028596810

