36
CSD_code = HEWPOP | q = 0 | S = 0 | Stoichiometry = C13H9N6O6ReS | MND = 6
C         7.72804738845447   -0.44329431441909    2.55970676310665
C         6.37029618932956    1.98336395828072    2.29433180394557
C         6.34603285458961    0.62959372280713    4.73781375350939
C        10.38247070795136    2.85066255069212    4.41261692739544
C         9.17925928723540    4.77498099450731    5.46660028325759
H        10.07446007104892    5.28221393993223    5.75693090303573
C         7.84901633094465    5.08757975277952    5.62555140530868
H         7.44083882086099    5.95431045600091    6.10110376364503
C         7.14599053174363    4.03586894473764    5.03564364274244
H         6.08555114242600    3.89227628738062    4.94479948510640
C        11.27466393428974    1.02680704446642    5.87528889456456
H        12.14874824042604    1.57176310219687    6.16156430531741
C        10.82144997396150   -0.22948785594163    6.20522228292755
H        11.29394417457747   -0.93801349278002    6.85230887224202
C         9.61655163770224   -0.38348523845766    5.51759485754052
H         8.94365401302874   -1.22036825154650    5.50236473688008
C        11.31191745525434    3.11843930839118    2.10475898853274
H        12.18591689969024    3.64199330903927    2.42877578741156
C        10.87386284535972    2.73792670912993    0.85741203629208
H        11.36160826910024    2.90868755423350   -0.07901307987880
C         9.66013532851700    2.08299222622438    1.07244057711865
H         8.99376103314795    1.63320432094358    0.36038228225717
N         7.99035774486456    3.14301712747050    4.55027110623590
N         9.22755321460832    3.59874494477393    4.81559880550937
N         9.35333153560951    0.70496014015281    4.81631750906987
N        10.36692125142014    1.56059694855518    5.03817322267493
N         9.37776660209280    2.06546128728874    2.36306936126876
N        10.38755834080538    2.69776461352734    2.98693976510924
O         7.77836812396601   -1.44193515082669    2.00612426936701
O         5.60401701897754    2.44219203727099    1.58118915102470
O         5.56507496395597    0.27523106161605    5.49329947253281
O        11.78676805143088    3.85015265357589    6.38072383146403
O        12.99744735167922    2.91049210725932    4.47186283485824
O        11.80836633036272    5.03753950513272    4.24011822582919
S        11.97961200738411    3.80282835003017    4.95669400634100
Re        7.71928033320314    1.26293934557464    3.50541916645629

