47
CSD_code = HEWPAA | q = 0 | S = 0 | Stoichiometry = C19H25NOPt | MND = 4
Pt        1.06721768188912    1.87268969195137    3.33549113928485
C         0.16913896253788    0.80629248737546    4.64750915191112
O        -0.55094472319829   -0.01766023691325    4.99349896413050
C         1.72820936299554    2.75491504957943    1.64538652904937
C         1.89325242594496    4.13985812983227    1.55156294955893
C         2.45927903158331    4.73388243772064    0.43566415399227
C         2.86739216414813    3.95867985430618   -0.63500900645358
C         2.68476820373902    2.58829309617037   -0.58502338442109
C         2.11787413852019    2.00179997219744    0.53446633515287
C        -0.74519319519938    2.21911135003864    2.51099524767815
C        -1.33197271092565    1.30558934389646    1.64129395141458
C        -2.57762755399173    1.55496862633468    1.08908046125789
C        -3.25547221463336    2.72113974878948    1.39820339143339
C        -2.68327588261350    3.63598364097961    2.26456968215717
C        -1.43851272479396    3.38575588283166    2.81842095253359
N         3.26405113116649    1.64593096339892    4.07469859748391
C         3.54083505895789    2.50569305168721    5.23868596424408
C         2.95676443558019    1.92570803118185    6.52375142003726
C         2.91417510137744    3.86782165262111    4.95010601436506
C         3.70948277311134    0.24819771469254    4.15642876384363
C         5.23046425974307    0.11973857632731    4.26598224166819
C         3.20400321819244   -0.48834028045116    2.91814754306739
H         1.56206338908669    4.78352783039132    2.35977983521920
H         2.57639576630894    5.80899300504630    0.40022144932527
H         3.30937729562521    4.42012858758574   -1.50699086156766
H         2.97966764320735    1.97280262776907   -1.42465557426135
H         1.96664697963300    0.92744029108709    0.52758789240496
H        -0.81478123988516    0.38757404156296    1.38433240808422
H        -3.02001052694165    0.83567157367962    0.41412887602312
H        -4.22618043182952    2.91644607199959    0.96550279543707
H        -3.20812007376713    4.54861076278176    2.51077036493486
H        -1.00708317390309    4.11541986763492    3.49639860739409
H         3.74529884254916    2.06523279162652    3.27476565909638
H         4.62708839210470    2.63383441574155    5.37236933592852
H         3.48220026487256    1.02768026518792    6.83809532184713
H         1.90349712320010    1.68910061082048    6.38024918209906
H         3.04028332916334    2.65768626773329    7.32283864917543
H         3.00149048107430    4.52537324817740    5.81105889247496
H         1.84662141076495    3.72575595781488    4.72013711018553
H         3.39868853654197    4.34506248099535    4.10025568921411
H         3.24260140048739   -0.20069744136120    5.03913879649009
H         5.60140975170287    0.54750074738407    5.19434739845826
H         5.71472666204680    0.62429152459820    3.43100937675402
H         5.51525654846436   -0.92874342589080    4.24213353090311
H         3.35121589640768   -1.56000809417496    3.02373068252600
H         3.73524416674235   -0.14955208566116    2.03064002740664
H         2.13029262221492   -0.29518070707629    2.78544349105551

