45
CSD_code = HEWZAK | q = 0 | S = 0 | Stoichiometry = C23H15AsO5W | MND = 6
W         1.96500473726012    0.75056975105259    5.32845802289989
As        3.14854921616294    0.49865176936551    3.09451108995136
C         3.69860733415590   -1.30811834011363    2.64820417106185
C         2.76444699778367   -2.31887619695184    2.85730255536962
C         3.07289631699540   -3.63422353332379    2.56338839655152
C         4.32505931311920   -3.95242417651156    2.06122464011286
C         5.25884640377009   -2.95330115873313    1.84533171313837
C         4.94731680132348   -1.63438336170957    2.13342653753939
C         2.16015599501767    0.96806943723189    1.49137742942339
C         1.46528800633369    2.17386662459888    1.49269239354523
C         0.72875382960460    2.56367140475703    0.38907233621307
C         0.67092407052390    1.74186967609318   -0.72540573652353
C         1.35495677802672    0.53807373153740   -0.73396414853085
C         2.10005615797801    0.15213425100895    0.36818055475317
C         4.80443094217290    1.47618866054526    2.84491167388143
C         5.82761890974027    1.20720663345266    3.75126142098845
C         7.02613260729788    1.89153867476029    3.68083554668878
C         7.20802571452094    2.86170784160427    2.70677953288798
C         6.19440542492881    3.13905809316108    1.80582050993356
C         4.99413758283091    2.44906955229302    1.87253671387245
C         2.55734196644406   -1.09432320443178    5.81524977249711
O         2.92167180595197   -2.12455616332880    6.14628319926472
C         0.32328711065947    0.07523739805073    4.40998387094272
O        -0.60894418134807   -0.27174605929314    3.84781425931019
C         1.41023239006163    2.63299711212449    4.96890624933899
O         1.09401728978665    3.72812361501989    4.88841065279201
C         3.59625191144395    1.49595875664227    6.20124788451568
O         4.49617836490390    1.96750116745070    6.72239472052956
C         1.01237849106758    0.88567534088239    7.05981963822271
O         0.46337801981604    0.96963120544665    8.05819913221771
H         1.78583271168213   -2.05990346301633    3.25710527960364
H         2.34187891705635   -4.41202000016851    2.72954105192438
H         4.57201638779322   -4.97982084172169    1.83852332919229
H         6.23393867401614   -3.20087393257466    1.45096074696527
H         5.67946146449957   -0.85172447811997    1.96033630023211
H         1.50870033779505    2.80635167339317    2.37556877500752
H         0.19526806815170    3.50309730229214    0.39864427048461
H         0.08972748529623    2.03922313942675   -1.58560521364696
H         1.30731365387435   -0.10426261886823   -1.60152918434070
H         2.63501439120335   -0.79242941346823    0.35971895682357
H         5.66772949760686    0.44532262211812    4.51290629923740
H         7.81630872756416    1.67593492174848    4.38524075002783
H         8.14094921948238    3.40299539811466    2.65320847421040
H         6.33722016408229    3.89675771643096    1.04880668789346
H         4.19833399156479    2.66650347173465    1.16661874299391

