59
CSD_code = HEXBAP | q = 0 | S = 0 | Stoichiometry = C21H25BN7O3PRu | MND = 6
Ru        7.74727860626321   10.47877741210971    9.93685201066159
P         8.59846425365917   10.16337202814807    7.89306831184718
O        10.00464326734714   10.81958981721901    7.33148501571324
O         9.04204606517919    8.64280718851655    7.43801371501715
O         7.67438015127635   10.37657959565791    6.53304174108455
N         6.24208986051917   11.39047181130916    9.28793982197813
N         6.75256886851832    8.57270704998306    9.84851234572758
N         6.88417409549898    7.75061870194862   10.88716998546744
N         7.02580741877166   10.59375908445764   11.80768583831008
N         7.06212144728249    9.52250026460405   12.60168419115366
N         9.31062266526031    9.46894509003628   10.73448092084039
N         9.10205245674497    8.51880944468424   11.64701278430368
C        10.50876787858208   10.01328930692561    6.28133408758666
H        11.47413874255897    9.59238400457456    6.58547840117972
H        10.63839434362261   10.60983778347856    5.37500903809479
C         8.20661562209670    9.58045009107143    5.48801181472800
H         8.46167611682128   10.20441890335558    4.62789347188462
H         7.45917599405683    8.83504635079352    5.19184139215519
C         9.45093106379130    8.90406749637424    6.10276389064979
C         9.92753118948356    7.65598775942156    5.39566294275425
H        10.77396289046846    7.23189190495335    5.92919629567133
H        10.22664122440411    7.89863899409660    4.37932563794713
H         9.12891091901325    6.91926850172259    5.37068950294815
C         8.73964256295824   12.25710936974320   10.15405306445583
C         8.77537078174313   13.19799643928099    9.12361218855604
H         8.26628339242227   12.97356510950304    8.18866884696188
C         9.44143864277431   14.40531565020006    9.24836488885519
H         9.44683978872507   15.10952914610863    8.42604774183950
C        10.10634958940412   14.71357740537383   10.42281533861879
H        10.62991133051407   15.65424043708050   10.52628282898140
C        10.09575886089292   13.79955067501941   11.46065234683875
H        10.61469613539673   14.02506890032614   12.38370019587340
C         9.42288542404814   12.59573800807537   11.32279296080216
H         9.43928756991617   11.90491532229752   12.16137546121456
C         5.30529138250981   11.95857461794934    8.91857325108620
C         4.15937225265045   12.68245455731003    8.43235799207058
H         3.45908730439013   12.86389109131658    9.24811524970380
H         3.65744297102756   12.10793276396718    7.65333343015489
H         4.47884291617415   13.63943085502481    8.01881663100854
C         6.26334140206135    6.58899161411187   10.63044686862323
H         6.25448577746912    5.79204067431565   11.34625710075566
C         5.70745543015429    6.67004739671609    9.37122808581557
H         5.14155639013934    5.92134162867182    8.85522214392981
C         6.04880578290255    7.94685118153385    8.92078054823182
H         5.81580018508187    8.42782836829940    7.98881391654783
C         6.48871795047735    9.81414128221620   13.78086385397106
H         6.42060077395188    9.08399405102302   14.56160614856639
C         6.06731425487693   11.12521375587600   13.74160493730388
H         5.57363249737032   11.67797103789412   14.51420551717618
C         6.43049270788051   11.57468984927259   12.47068120594552
H         6.30465932240284   12.54548449028360   12.02717544341589
C        10.27092840703214    7.95482685244588   11.99017048346241
H        10.31720402821521    7.16740621398827   12.71510013355083
C        11.27159971675976    8.57052577698305   11.26983203367562
H        12.32219528995612    8.36641424154750   11.30390552865868
C        10.61201552381565    9.52109706470147   10.48903436332709
H        11.01283333753842   10.23491364309899    9.79285392125511
B         7.67843398356172    8.19865932275488   12.12408400541002
H         7.66933119158510    7.37635262023523   12.97381818565533

