71
CSD_code = HEXCIX | q = 0 | S = 0 | Stoichiometry = C22H37MoN5S6 | MND = 7
Mo        8.55306353792361    2.57610173201395    9.76207315678487
S         9.75481333903545    4.52731834739236    8.68805551180984
S         7.15820804809319    4.65560147979798   10.00050390438901
S         9.25500021425179    3.56743269962087   12.04904555808324
S        10.78388765075650    1.60939659143165   10.64553799861934
S         9.34975990904377    0.96947151502706    7.89449121207779
S         6.94612974322994    2.49952787447955    7.71992378519210
N         7.59878249124245    1.31037471311595   10.53173537657967
N         6.91710227067304    0.47823849640549   11.04384007901137
N         8.36905689969775    6.76750538052282    8.94365302078168
N        11.60192106639753    2.67867985421253   12.94275742187291
N         7.56824090445936    0.60662264275565    5.95393590779322
C         8.43126343111362    5.45716126746750    9.17797946436069
C         9.43845417726885    7.44974217244715    8.24540995413337
H        10.38285517141363    6.95600963639432    8.48972347342952
H         9.47584265387455    8.47946506048274    8.60777635417366
C         9.22287328336801    7.41884703630628    6.73506023543005
H        10.03012435863580    7.94554753886515    6.23405840488827
H         8.27782378214653    7.88840452671114    6.47090287215076
H         9.20951251129454    6.38928105338760    6.38660857599294
C         7.23394199734072    7.54929086446309    9.38729369225554
H         6.33543944057725    6.93130472031376    9.30917701907485
H         7.13220168535516    8.40571109372752    8.71716176854474
C         7.41125262487608    8.01363556802554   10.83016863891453
H         6.54911442030212    8.59713350807053   11.13975785753739
H         8.30519813093791    8.62550988891404   10.93106928066499
H         7.50164190506167    7.15095230683916   11.48562121400591
C        10.66829625086161    2.62815503517881   11.99332490699380
C        11.46239549135195    3.61127174314511   14.04252852135498
H        10.40856532843771    3.62637896512272   14.33759281874654
H        12.05744072389046    3.23912781221897   14.87886866717247
C        11.89594965033628    5.02638911669337   13.66884803386393
H        11.70392212907999    5.69823145898699   14.50064438279614
H        11.32828844252169    5.37004359044303   12.80810993228233
H        12.95503962461842    5.06134956254002   13.42846181649820
C        12.79439200610477    1.86374959761741   12.82804012898201
H        12.49882943888663    0.89914984777051   12.40450206051121
H        13.18974796411985    1.70156782615630   13.83305005867770
C        13.85648612098885    2.49704898103169   11.93351502698955
H        14.69402490780211    1.81395344837867   11.82411627198335
H        14.22022896982135    3.42974881665811   12.35613504092174
H        13.44033930622241    2.69380219313172   10.94913612153846
C         7.90859860410050    1.27086626564301    7.05475168697282
C         8.40490623681442   -0.46452221128703    5.45309694481249
H         9.44905086092952   -0.20350820784749    5.64398075668610
H         8.24989210997072   -0.53833661806490    4.37471110510678
C         8.07528918993130   -1.78801398558616    6.13785004917428
H         8.71521981372319   -2.57486388435600    5.74943032054152
H         7.03692902797348   -2.06279364984365    5.96701657722882
H         8.23956170381794   -1.70072535883167    7.20889035710281
C         6.33164283616885    0.90442084433008    5.26208931985863
H         5.58970466280082    1.21791219433048    6.00162711659236
H         5.98489687413761   -0.01113259824198    4.77857525709119
C         6.52701735383633    2.01431943427478    4.23325399222180
H         5.59054279747033    2.21367488662419    3.72052544134749
H         7.27724653004794    1.73118524076613    3.49835402864249
H         6.85174819365232    2.92345373025101    4.73219606393589
C         7.07635135805522   -0.88331908194453   11.09105077248301
C         8.19119016799938   -1.50718028822656   10.51893512097827
H         8.95040888840481   -0.89948292511206   10.04004991909094
C         8.31351971203466   -2.87938236885997   10.57623243018260
H         9.17771860868578   -3.35215914774368   10.13041461146500
C         7.34687745490366   -3.66181856648230   11.19829732425018
C         6.24439971631269   -3.03031750813465   11.76835005220812
H         5.48765472318905   -3.62845460345067   12.25661375515186
C         6.10179016159722   -1.66017023997023   11.72016415559017
H         5.24552054875507   -1.17323993259899   12.16047141522532
C         7.48892768970193   -5.15206242080988   11.27664269698831
H         8.26352211050663   -5.50545991912831   10.60046263445387
H         6.55030767784525   -5.64220689498122   11.02356703770780
H         7.75731238319056   -5.45141774915316   12.29040352897987

