95
CSD_code = HEXDIZ | q = 0 | S = 0 | Stoichiometry = C41H44BN8Y | MND = 10
Y         2.91881906953908   -0.65978875971348   10.95853607448870
B         1.50493491735379   -1.35394185265273    7.93757256232464
H         1.04980693983839   -1.63836922893921    6.88942027618731
N         2.99182158059741   -0.98561130755399    7.76807062536013
N         3.70445058840455   -0.36159092955348    8.73684135918769
N         1.31667766778082   -2.53505496151058    8.91459519412894
N         1.54173004336574   -2.41398941563052   10.24500129138560
N         0.75627688251398   -0.13639569419952    8.51640329296362
N         0.92627300045005    0.28982237593510    9.78946347739688
N         3.39094117242652    1.27877077640416   12.19665873415327
N         2.01790573530375   -0.25854121314798   13.06736875477227
H         1.41500763508219   -0.49214473663943   13.85372208263985
C         2.64010920466372    0.89422805048532   13.22795484646643
C         2.38915448253727    1.71950720443448   14.43658140816047
C         2.49871482246421    1.14812528298351   15.70046832180200
H         2.81816648808785    0.11910275180021   15.79229966061582
C         2.22819910203730    1.89783193864738   16.83116600464402
H         2.32769620199607    1.44903099555028   17.80868758161612
C         1.83101541751274    3.21827595346900   16.71028420731159
H         1.62151063649361    3.80339855678888   17.59340855870768
C         1.70152007654602    3.78736483251767   15.45357040485222
H         1.38634047072470    4.81571236770111   15.35586618965928
C         1.97836774875504    3.04506741402838   14.32196253119906
H         1.87963318895854    3.48904039774409   13.34245771680802
C         4.19616895968834    2.40992161596042   12.25305536399878
C         4.36413187537724    3.06538829773172   10.94130284114030
C         3.32872547113903    3.01788158858935   10.00694234569658
H         2.38718207667179    2.56470909075894   10.28318951937914
C         3.48929058891069    3.55906348806144    8.74447927422455
H         2.67458489895704    3.51398019698885    8.03563803771042
C         4.68636984300602    4.15770884860353    8.39103227122903
H         4.81261053481132    4.58359203343158    7.40632156304589
C         5.72643304447234    4.20037784114839    9.30681213297115
H         6.66752985356575    4.65565512067641    9.03354989492443
C         5.57384958479744    3.65111671072554   10.56490614732552
H         6.39958877630017    3.66362171846462   11.25988165485087
C         4.85001657753759    2.78310759610239   13.38067325625987
H         4.83408245068061    2.09280127516343   14.21523009814628
C         5.52177728456903    4.03839099334024   13.65144260879512
C         6.58726339068967    4.07067933884980   14.55487426687130
H         6.92731545437285    3.14558138361514   14.99914328965996
C         7.21511077636716    5.25910090554252   14.87171406247688
H         8.04439903954698    5.26069486894192   15.56488623232569
C         6.78140802343643    6.44814294886013   14.30892078224026
H         7.26936651315308    7.37870086519496   14.55914337218607
C         5.70750688533536    6.43632337422166   13.43227463318937
H         5.35170591665219    7.36294819188703   13.00434550259133
C         5.08170707961887    5.24974973259917   13.10925631564651
H         4.23501808272898    5.25254444474851   12.43862880584760
C         3.27220576554789   -1.73995350362687    5.39170540212480
H         2.98103397879627   -2.77177174849041    5.57764151804972
H         4.08026225453685   -1.72828517213114    4.66524934354154
H         2.41512566335582   -1.21696987451193    4.97185170821699
C         3.73061799800545   -1.09096868317519    6.64811628665274
C         4.96106800638510   -0.51309845649659    6.89838187261132
H         5.78719555348200   -0.42665736087254    6.22234249172747
C         4.90035989743802   -0.06799348543003    8.21925271039674
C         5.97674845706822    0.61757823397685    8.98234585017368
H         5.58688884534404    1.01271307476994    9.91863955476447
H         6.38199414743301    1.44032452100963    8.39536995282703
H         6.78875003184251   -0.07870548184476    9.19382021191053
C         0.31128421581383   -4.18257718873128    7.30898104555919
H         1.16522357371511   -4.17273197527421    6.63515177536030
H        -0.46413836772588   -3.54811213393593    6.88304492414923
H        -0.06952812197852   -5.19784781421028    7.38038907191882
C         0.70079852044047   -3.70686439812894    8.66282652627199
C         0.51516357880315   -4.35573557567609    9.86878543717959
H         0.05668721357766   -5.31085543592666   10.02642703254074
C         1.04933040410115   -3.50228518588188   10.83626740669469
C         1.05365280636648   -3.68559855460459   12.31187162456201
H         1.58921249303547   -2.86431058695618   12.78797335851769
H         1.53576239969911   -4.62518008433639   12.57467319574229
H         0.02869641050593   -3.71476233678302   12.68304148723230
C        -0.66179803319553    0.38070952070104    6.51121812176261
H         0.17936305598721    0.48760851841827    5.82912016301904
H        -1.41272325311156    1.12686835697280    6.26511490689848
H        -1.09261833290370   -0.60861761678115    6.36757580423697
C        -0.22404753172608    0.56901552489504    7.91973153173273
C        -0.71320169313925    1.47339852314090    8.84196105034470
H        -1.49993284330158    2.18630149456078    8.69955278821540
C         0.03138605396517    1.25479451848206   10.00343033129000
C        -0.13660749398820    1.94563963878604   11.31184591081752
H         0.46136835912221    1.45680073546353   12.07664436388125
H        -1.18417170459109    1.91874312400700   11.60979389136835
H         0.15887182895495    2.99268129395549   11.23669811357799
C         4.32103775297990   -3.61421534224439   11.50245851968992
H         4.04124014641697   -4.57015769396154   11.08871076646316
C         4.25723216786664   -3.25839972485373   12.85828826114104
H         3.92092079349312   -3.89749561591117   13.65802088638954
C         4.73579181493648   -1.96596632325224   13.00231320057853
H         4.88270142542760   -1.43842729283385   13.93322145784960
C         5.08655279954174   -1.46841344899653   11.71699680357970
H         5.81536974684321   -0.67639926553434   11.56657294417222
C         4.83404264429768   -2.53796512368524   10.78439926358751
H         5.18091051482435   -2.57418786332203    9.75747570097085

