74
CSD_code = HEXFIA | q = 0 | S = 0 | Stoichiometry = C33H34ClN3P2Ru | MND = 8
Ru        0.81737318386037    5.87062191852742    4.28237252512452
Cl        2.31677171314496    4.80024999039563    2.78834421524950
P         1.46271390043355    7.87547264590297    3.43332429003980
P         2.29654592844344    5.70334445144160    5.98837333366977
N         0.77278252524613   10.48999634866644    2.82201313039354
N         1.89806711664015    9.23855677715873    1.06376556554554
N         3.15120822948642   10.02552680473879    2.99195409515192
C        -0.87910715258974    4.58845349748603    3.30721404717139
C        -0.52778956934300    4.15305863830194    4.63124030032722
H        -0.30884563722652    3.13075368990425    4.91149134732617
C        -0.88504506385363    5.19664579072837    5.52704269900602
H        -0.91898793645314    5.11811170926718    6.60754348048853
C        -1.29536598165938    6.33260859849112    4.78794988361040
H        -1.75992396408185    7.21723090231539    5.20474090051183
C        -1.35332220046219    5.94522855226130    3.39810771750125
C        -1.83721097118783    6.59262113735074    2.24811175084744
H        -2.25309354369518    7.59035688278724    2.31771183702952
C        -1.80619556413665    5.92445426852697    1.04787620773600
H        -2.17471733078741    6.40948259226036    0.15519027979553
C        -1.31510557455695    4.61288037870662    0.95609468575007
H        -1.30966721423241    4.12459826024051   -0.00713286058952
C        -0.86320847598284    3.93739295020837    2.06284558978783
H        -0.50667037705916    2.91958315052238    1.99041013786132
C         0.32549561140866    9.34690649655931    3.59037297648593
H        -0.67545370089240    9.06323486220199    3.24723275231540
H         0.25776223865473    9.63856669097772    4.64547996931564
C         1.60951298618893    7.91551074066877    1.57977320740072
H         2.40749437180863    7.22077252491863    1.29038931124258
H         0.66918583587741    7.55180763664939    1.14455914956730
C         3.03790819393183    8.81302881013084    3.77708982673224
H         3.08075871765145    9.06351357244516    4.84515288886146
H         3.88612701309759    8.15828338709666    3.54744710300822
C         0.84973257991212   10.18454179707375    1.40079457579312
H         1.04873677776324   11.11965408434060    0.86683087988443
H        -0.11241620178768    9.78319803085915    1.07070064886643
C         3.16635914653428    9.73874382238826    1.56555027981395
H         3.39919183136188   10.66870565463285    1.03633924081591
H         3.94635427913052    9.00182893382106    1.35970803878905
C         2.07352472528512   10.95676645473018    3.27338378303140
H         2.29279744401145   11.89770642343343    2.75818830543840
H         2.03263896252937   11.14024230821438    4.35072444979601
C         1.72672464088627    6.45062662462243    7.55160381441586
C         0.90681502451755    7.56904201553702    7.45831070981612
H         0.63296456741232    7.92202511838066    6.46892435799283
C         0.45082567385226    8.20331830723242    8.59926823384834
H        -0.18827583436309    9.07090292174818    8.52027279711893
C         0.81312082730646    7.72020071038762    9.84638770889767
H         0.45385287909814    8.20786811973826   10.74056330676475
C         1.63854651496521    6.61130173054266    9.94725651710675
H         1.92550592257267    6.23922238700873   10.92016830852500
C         2.10002097699775    5.97819683041228    8.80686784465779
H         2.74970741557897    5.11733675508651    8.88619403015404
C         4.01754139067882    6.31433618978588    5.89183244367422
C         4.64513423676167    6.96002995974919    6.95285968977000
H         4.11291876776769    7.14188842013797    7.87488584892585
C         5.95841029727781    7.37978435501609    6.83107932784128
H         6.43659908841027    7.88128347721488    7.66015554525477
C         6.65877620825476    7.15897160234100    5.65741401131814
H         7.68492134914127    7.48459340345387    5.57021336058644
C         6.03587740743442    6.52594725382359    4.59435038942226
H         6.57439957849204    6.35711700044367    3.67318172600367
C         4.72019230571096    6.11208379481026    4.70410366062971
H         4.21947293132650    5.64048344300248    3.86721027847315
C         2.53345238320643    3.94731200089744    6.42210654743089
C         1.60249001453570    3.29989884083080    7.23269210722297
H         0.79960205766681    3.86477180702975    7.68747169343855
C         1.70438605479656    1.94116363814774    7.46376098132930
H         0.98074007652708    1.44823345298488    8.09753978008586
C         2.72584343661913    1.21111860029678    6.87728239680248
H         2.79964957174163    0.14800105313947    7.05368381438021
C         3.64438839761107    1.84660042419031    6.05852659206135
H         4.43529639483877    1.27846527695060    5.59129552129374
C         3.55026908444135    3.20709000803695    5.82696944909703
H         4.25831350551194    3.69634230970712    5.17556465919060

