68
CSD_code = HEXFOG | q = 0 | S = 0 | Stoichiometry = C29H33N3P2Ru | MND = 8
Ru        5.70755248884635    0.13243370080684    2.90389344281545
P         4.50749864065454    1.68524859563796    4.00173455839752
P         6.91335695575506    1.53038151387205    1.60627909791806
N         9.14633389363071    1.72811861824443   -0.05451123209994
N         8.53912575477697    3.74937613094410    1.15422404353940
N         7.20252402057454    3.01408062271368   -0.73920083130093
C         8.43739559976088    0.80245740208210    0.80555346631510
H         8.12539525303854   -0.06673825271321    0.21233617097551
H         9.12760778815134    0.45774605918192    1.58478240061052
C         7.75426097490051    3.10201220536322    2.18549722119335
H         8.41695796260465    2.85688234795364    3.02562859810452
H         6.98610891710120    3.80173008919708    2.53849260944930
C         6.23135954010607    2.25981727520637    0.02832837862514
H         5.39232545343831    2.91566197306211    0.28240990282082
H         5.84709286981183    1.43088129886139   -0.57865488185925
C         9.61219867564510    2.89091019869592    0.68220186297211
H        10.25065435029980    3.48036720002396    0.01580130840706
H        10.20476164328367    2.55715152390583    1.53880070116623
C         7.71521872201252    4.14038317519795    0.02149298944164
H         8.33029129422635    4.75190112243910   -0.64733316000084
H         6.87364106920376    4.73691456318772    0.38473128824838
C         8.31396070309633    2.17897456717239   -1.15813234673939
H         8.94299285282895    2.76166416752176   -1.83947648549032
H         7.92339573934092    1.30670574965479   -1.68877310368337
C         2.73297888623214    1.37572845723824    4.32117702164620
C         2.15394111044746    0.19748286645411    3.87229960128715
H         2.77192443498825   -0.50770503609349    3.32884333432353
C         0.81172586137843   -0.05025585415848    4.10302273278839
H         0.36264745399568   -0.96864259027372    3.75322505573749
C         0.04369989490944    0.88214107197490    4.77977106384605
H        -1.00420181464236    0.69124398883608    4.96054476971887
C         0.61598374790349    2.06571666980071    5.22182683374521
H         0.01339998966479    2.79448206626168    5.74481682219046
C         1.95537918745713    2.31595674853391    4.99320523369732
H         2.40814505415249    3.23754981712642    5.33482212090073
C         4.31875260257957    3.37302994684382    3.32611335257719
C         3.72854778759663    3.41261825945073    2.06413715287344
H         3.44025576012941    2.47185846604377    1.60764874798473
C         3.52795886348423    4.62020702981714    1.42323280064426
H         3.06930003135215    4.64663195309249    0.44515755720084
C         3.92026120610467    5.80051528837244    2.03728103944952
H         3.77313651979638    6.74605950097212    1.53616894382618
C         4.49463643943477    5.76696542262097    3.29629412665904
H         4.79114966727139    6.68721089702651    3.77909358121160
C         4.68943168784310    4.55908764137526    3.94685478699740
H         5.12708466654209    4.54621208902731    4.93509856097836
C         5.12736418212920    1.97983498652076    5.69379605925203
C         4.47611561572177    1.51879498985277    6.83211369861646
H         3.50880002707664    1.04350851707917    6.74536758394541
C         5.06599817221538    1.66429649914279    8.07652015166229
H         4.55350872331955    1.30322203663360    8.95683757038454
C         6.30848196062592    2.26280988585325    8.19635356892546
H         6.76444967992842    2.37446990384113    9.16927132936396
C         6.97476294993913    2.70384710698984    7.06257380501225
H         7.95213441711882    3.15698744314113    7.15107271284823
C         6.39309763813238    2.55042781206572    5.81941720528012
H         6.91732046292446    2.85636883663461    4.92239671426151
C         7.49891928856448   -0.97067079957705    3.66075235305717
H         8.54495446202712   -0.69013290827709    3.66061746014582
C         6.85175899936541   -1.75561949971245    2.65904446492083
H         7.33685642670314   -2.20942466836305    1.80356722392265
C         5.56108025247907   -2.08836617473639    3.14790512484691
H         4.87048986194418   -2.78042048925296    2.68186565649211
C         5.39388650832019   -1.47631206371061    4.41215858780081
H         4.58077601248511   -1.65889221301239    5.10554991826546
C         6.60767161001488   -0.79251265221861    4.73042538808005
H         6.84822920528209   -0.36500511758512    5.69563796370422
H         4.65509334202020    0.12413202012290    1.77721421910902

