88
CSD_code = HEXGEY | q = 0 | S = 0 | Stoichiometry = C40H42ClIrN4 | MND = 5
Ir       10.65810292027902    7.89795578392044   13.34324784818998
Cl        8.75095763136567    7.16180492482163   12.11235853726264
C        11.30800936160321    9.18456351537511   12.03752774559725
C        10.82673079328947   10.48892719598065   12.11086464326663
N         9.98589029344300   10.67124971381432   13.22183341848230
C         9.68053357012568    9.56448163048789   13.97923188466018
N         8.81242029419176    9.96124146080976   14.93305355213128
C         8.58169668873424   11.32299026876412   14.82298534958283
C         9.33657789414494   11.77536479689087   13.71923112672525
C         9.34285409786289   13.11349095234585   13.35255042733861
C         8.58012672251928   13.99364546203591   14.09437014714271
C         7.83491666412479   13.55452577272263   15.18212724132831
C         7.82821585953640   12.22606889546731   15.56279743125470
C         8.18302891242986    9.07847941261080   15.91821659135239
C         8.58401556434703    7.61765588019200   15.68748726661560
C         7.92266017788196    6.71560013203015   16.72981328783102
C         6.40469185506512    6.82154645039549   16.60861015625222
C         5.99380447085368    8.27401371808401   16.83256558420801
C         6.65601916715876    9.15943988348696   15.77729288896247
C         6.42900059203268    8.72211670041371   18.22799521889999
C         7.94620676164218    8.59000038460340   18.36134371283124
C         8.35731529876180    7.13762913509237   18.13130640383025
C         8.63181083578695    9.48397228038198   17.32826313516105
C        11.16718722315854   11.37067661111576   11.09414377620911
C        11.95999735222233   10.90978731637433   10.05091943079874
C        12.39163810834211    9.59293079741508    9.95358186283241
C        12.04107066234228    8.70002936583057   10.95692295963618
N        12.24859517082069    7.31252829008291   11.04700732976217
C        11.72909418445161    6.66374573025872   12.14123820205631
N        11.91646567457277    5.34294770945247   11.95481351578340
C        11.46361989840353    4.29968857200209   12.87774108200784
C        10.31460737170812    3.52638426692073   12.21841925501471
C         9.83771931201705    2.41838094541041   13.15477855026878
C        11.00125741829756    1.47688784256994   13.46667045441107
C        12.12037901058609    2.25307596020241   14.16147708958114
C        12.62644812785820    3.36638250358898   13.24265294361489
C        11.59023777815812    2.85976871559102   15.45735817843716
C        10.44424279833698    3.81094695440364   15.12176491529440
C         9.31287804464202    3.03854419898280   14.44765461084605
C        10.94475590599513    4.91004624585676   14.18459698910898
C        12.51700584273974    5.12352816909599   10.72579889586405
C        12.74855501994016    6.39375833880203   10.15418297445826
C        13.36402179562958    6.52250156910327    8.91752192147169
C        13.72559469291155    5.37006966510405    8.24823884759335
C        13.47015449339014    4.11660479881911    8.79109336603965
C        12.86562483052531    3.97543172781007   10.02564078678153
H         9.93132096275861   13.47090250429749   12.52564963945508
H         8.56813605085851   15.03977534946149   13.82973128970575
H         7.25309694730873   14.26582176022588   15.74842003058745
H         7.24969871940705   11.93168377801531   16.42266983643735
H         9.67445315790187    7.51502912290104   15.76332976992635
H         8.25640498043688    7.30917824761652   14.69262541625952
H         8.22909015434407    5.67984045966303   16.54703290219309
H         5.92289949711160    6.17624774651549   17.34641857023281
H         6.08710068629249    6.49381074333014   15.61673127262324
H         4.90578922091133    8.36654692479667   16.74264785606766
H         6.30232687796248   10.18305577414821   15.88802011187200
H         6.37807471015056    8.82133673121715   14.77613508636799
H         6.12848959023992    9.75879513695573   18.39823980383701
H         5.93695951869466    8.10568752722435   18.98328914811464
H         8.25310921910001    8.90414457625986   19.36527018459908
H         9.44021365106781    7.03685652612889   18.23409838498408
H         7.88770998137881    6.49374134070079   18.87810640148978
H         8.39037717173840   10.52751606056894   17.52827560718634
H         9.71731848159900    9.37697820458366   17.39737165766670
H        10.81876972776194   12.38938730540232   11.07470598524119
H        12.22840859254789   11.59898058106203    9.26440197376784
H        12.96956606032963    9.29652878815720    9.09484882771686
H        10.63489281709069    3.09753805303890   11.26820992426929
H         9.50039971880085    4.22443251760424   12.00961580848990
H         9.03476033175595    1.85689765170280   12.66502324125179
H        10.65882101004598    0.66677469350729   14.11415007274572
H        11.37504729486357    1.02824565680098   12.54311876357586
H        12.95043340852266    1.57373831053456   14.38635099463749
H        13.40267009377093    3.94662906653124   13.74834444028175
H        13.07473329088554    2.92297023063579   12.35625010407631
H        12.38795645753612    3.40137142212209   15.97062343326771
H        11.23801006239798    2.06968243824909   16.12397127117693
H        10.07619180285976    4.27407483901266   16.04426566433460
H         8.94096562493502    2.25813500503392   15.11537398172909
H         8.48389215507116    3.71270008480257   14.22232863344196
H        11.74830352223595    5.46752028792377   14.67267987256671
H        10.11114610564654    5.58846158625098   13.96540076397863
H        13.55668724260798    7.48537362582353    8.47774101750223
H        14.20443666401671    5.44405717034004    7.28392852751236
H        13.74577160421898    3.23216471982255    8.23703173588417
H        12.66884506723415    2.98510556459485   10.40129658369149
H        11.82408462155528    8.17647124100198   14.30068387247635

