102
CSD_code = HEXGIC | q = 0 | S = 0 | Stoichiometry = C46H49ClIrN5 | MND = 6
Ir        4.20045519046053   12.78716967398295   11.81894030986148
Cl        5.13193234765466   10.57017840474818   12.19105482839933
N         5.81965811834889   13.49400851302609   12.70411251465283
C         6.84232882010841   13.54457335841891   13.23009526691123
C         2.69201391755944   11.85458723442803   10.97375673813557
C         1.67378425287467   11.34844013723074   11.77861388327348
N         1.85573723147769   11.72478504741793   13.12389535081214
C         2.99473890022489   12.42826956790761   13.42120632545693
N         3.00785631770747   12.60321511002039   14.75739860030450
C         1.88774859870700   12.04043302860942   15.32516363765825
C         1.14289103318418   11.47007436543910   14.27383807271639
C        -0.06233538694209   10.83819362279164   14.54846350530539
C        -0.48273678985984   10.79430525865955   15.86488578985604
C         0.25978678994138   11.36545939467635   16.89537851925618
C         1.45896468193382   12.00252650634754   16.64083059776420
C         4.02499799753685   13.27094801919632   15.48832346062238
C         3.99801702048541   14.66557919600965   15.56448933135513
C         2.90509344293855   15.47078056680163   14.90389252221521
C         3.48142382491611   16.59788960739959   14.04818361370462
C         4.98220389803705   15.29960864561488   16.31064378502183
C         5.96238465551291   14.57025395163125   16.95571776534522
C         5.97262441136930   13.19173845113777   16.86705248478190
C         5.00684934022813   12.51462957835571   16.13259250802031
C         5.03073283287311   11.00629761895419   16.06834084380502
C         6.34816375753410   10.50377252253977   15.47620999195326
C         4.79263534026311   10.41355273221972   17.45989014405234
C         0.70100277410302   10.52824483551174   11.22808554535977
C         0.78569574373415   10.21398133359882    9.87846241214377
C         1.82662216272786   10.65790090004941    9.07425243773697
C         2.79380744373824   11.47655065377880    9.63676026316541
N         3.98371160469795   11.96307181386427    9.06077746700017
C         4.85117559796632   12.61994135929884    9.89568913947002
N         5.95228794571590   12.90147232839875    9.17135441752923
C         5.80094685203336   12.45671436749211    7.87788567492800
C         4.53198415111457   11.84908558224439    7.80300524288025
C         4.09177572214460   11.32250547936086    6.59625949881220
C         4.93549993433116   11.41605125180267    5.50487190872277
C         6.18671422414829   12.02161859424408    5.59008071418234
C         6.63930968691666   12.55645223968428    6.78075782909351
C         7.11936267077617   13.54463124426890    9.65990258073567
C         7.13102232316097   14.93763933137678    9.76850264205756
C         5.93190430360062   15.76478217959800    9.37157150933451
C         5.62450316071368   16.84936382732319   10.40314815916818
C         6.16753297424303   16.37436091391726    7.98628761362082
C         8.29774479499779   15.55009518228547   10.20476609763758
C         9.41205467566918   14.80056030666792   10.53102575662601
C         9.37719927257171   13.42392198561137   10.42677660012903
C         8.23247704013601   12.76814794029351    9.99035520597834
C         8.22652138429352   11.26228568778675    9.87801530204323
C         8.50464671644983   10.61577369075481   11.23610942107676
C         9.24417285353681   10.79979686155831    8.83175121768972
C         8.11293772126936   13.62769965474149   13.88655534209541
C         1.95172024441015   16.01696935776512   15.97076939753926
H        -0.66615576904782   10.39849991108041   13.77313223185156
H        -1.41689787355096   10.30715056168856   16.10008991176402
H        -0.11164911265340   11.31183969434292   17.90738152782567
H         2.04096914223836   12.46077750053788   17.42615430044104
H         2.33686970614335   14.81999146867731   14.23471036381659
H         2.68051323788768   17.09550118289098   13.50721867834394
H         3.99559728458680   17.33973738924806   14.65362330572763
H         4.17875290859520   16.18390939859741   13.32475302123725
H         4.97849724124875   16.37493324010838   16.39765029542964
H         6.71763293155859   15.07923872621708   17.53812817417064
H         6.73860348523153   12.63269999673926   17.38342709053502
H         4.23152464055324   10.65719008388921   15.40951532318520
H         6.36955155083415    9.41685806647015   15.50149091167238
H         7.20734518012520   10.87893795377983   16.02772129508891
H         6.42250408728809   10.81262403836864   14.43693021035560
H         4.76209307054213    9.32813847561083   17.39992388954996
H         5.58816052581611   10.69702060161575   18.14541332076704
H         3.84547511871592   10.75944718738867   17.86896060007660
H        -0.09888891203349   10.10893667577824   11.81606677058229
H         0.03137690919106    9.57338813673161    9.44590533107296
H         1.87146341511101   10.33595833772742    8.04672740551521
H         3.12419307383018   10.86149783368079    6.49389517028761
H         4.61200922402946   11.01278742202684    4.55724635611175
H         6.80867924519057   12.07753722157260    4.70975026848813
H         7.60060381585363   13.04119398926753    6.86125991303944
H         5.05521529652000   15.11440161887933    9.32084931364521
H         4.66793372412778   17.31230304268820   10.17466959924814
H         6.38401664173242   17.62694150213341   10.40841045772256
H         5.56315908144293   16.40612904834390   11.39360526164265
H         5.30664158435633   16.96753359478994    7.68718463535258
H         7.04518343858649   17.01756488441279    7.99586754461456
H         6.32169171914603   15.59328188501256    7.24426836725114
H         8.34144644016034   16.62497752678584   10.28291384567378
H        10.31518421008143   15.29375580446185   10.86242309553758
H        10.25561799652521   12.85049278360521   10.68182226818636
H         7.23695009784990   10.92393165102028    9.56036092481614
H         8.56253385025904    9.53581554074373   11.12271318854265
H         9.44004483701545   10.96812655300410   11.66528739024556
H         7.68780937208465   10.83391608496873   11.91927144478551
H         9.20340845131193    9.71782144002922    8.72946807150071
H        10.25496580695514   11.07885249258821    9.12033546388435
H         9.02766516070374   11.24224309586427    7.86157535697256
H         7.97552253960849   14.00992995183256   14.89785224144968
H         8.77070014167632   14.29120514949946   13.32524399853177
H         8.55781721552437   12.63431052687397   13.93250740495919
H         1.14918779963102   16.58123868676117   15.50159798550082
H         2.47930828476861   16.67361010469773   16.65906396008537
H         1.51073260999939   15.20252560182564   16.54243665457797
H         3.58675504802578   14.17190731839158   11.57254607042131

