74
CSD_code = HEXJAX | q = 1 | S = 0 | Stoichiometry = C35H34N2OPPd(1+) | MND = 4
Pd        3.73830164608234    2.77476046976345    2.10172460378764
N         1.60359173982732    2.98665837668841    2.62629792495663
N         3.18409470524961    1.43227158477842    0.66395324643077
O         2.01360357362129    0.68132591872877    0.72457698908320
P         4.54314620778305    4.05540063132801    3.75038138895150
C         5.44726122802969    2.70283198361748    1.03555827970546
C         5.22637336773786    2.04148498229921   -0.19445963568397
C         6.21535856090962    2.04081424387962   -1.17825950425396
H         6.03966292823530    1.54899278602073   -2.12268201006899
C         7.42127436679986    2.67531211697082   -0.94786651940318
H         8.18378596393597    2.67358159009432   -1.71122002420364
C         7.65099741878546    3.30385527875446    0.26383538547663
H         8.59864639852439    3.78542415230657    0.45203650604914
C         6.66562670038950    3.32510046806035    1.24403348424544
H         6.87738436579318    3.82372686981721    2.18335596188306
C         3.97073140997748    1.30718806740751   -0.34354951758342
C         3.67623065983543    0.44342217136396   -1.51955153118905
H         2.72637273144643   -0.06865252756030   -1.38748452760125
H         4.46757227346775   -0.29293451666419   -1.64967864670767
H         3.62904424021300    1.05046294518884   -2.42267907588652
C         1.51554498291013    0.64245505170565    2.05403393315884
H         2.35259457207521    0.46525743761654    2.76058890464992
H         0.82722012135386   -0.20362396124848    2.07498584198171
C         0.81147516797196    1.93631601469642    2.39899859044631
C        -0.57211259628064    2.04169740321027    2.40545397126032
H        -1.18177189743004    1.17218190617311    2.21839617646506
C        -1.14730786587160    3.27787444501378    2.65288739422314
H        -2.22033000948322    3.38761273582932    2.67224599801118
C        -0.31816310393677    4.37004246767719    2.85802044732970
H        -0.72353587972083    5.35287946630861    3.03448015016557
C         1.05268861496859    4.18037263671074    2.83200536930217
H         1.73345883251541    5.01037340286575    2.99328185144645
C         5.81209119207652    3.19452948856322    4.71940210511562
C         6.36442082871598    3.72793617865771    5.88011235759883
H         6.05746375668221    4.70379789055596    6.22877340621701
C         7.28514160429901    2.99565251060329    6.60340436636588
H         7.71549760052486    3.41769954126370    7.49963065317975
C         7.65812787037308    1.71552307622753    6.20361307033359
C         7.07038122832969    1.17487354753334    5.06339670658858
H         7.33329003558764    0.17377156034125    4.75464461064589
C         6.15433148582083    1.90150514660084    4.32917716063152
H         5.68564516033687    1.47048199748739    3.43887225199294
C         8.67227021238026    0.93977934770695    6.97938510413890
H         9.66723886803098    1.13087582410418    6.57647307815741
H         8.48373811854920   -0.12847955588820    6.90936366387528
H         8.67284450178244    1.23427715836829    8.02561794976303
C         3.35664580255567    4.48173355952739    5.05686339086056
C         2.67185929226067    3.40680640655837    5.62287197123589
H         2.88968022559088    2.40144749638187    5.27041578631997
C         1.74033248211363    3.62156974296223    6.61518569499955
H         1.21587121177842    2.78570056966886    7.05493332660516
C         1.46837177109610    4.91312200409285    7.06487507376271
C         2.15144994891845    5.97805879051450    6.48991285605939
H         1.95061303780569    6.98359005742729    6.82943495392785
C         3.08702509513840    5.77246574837086    5.49092488651835
H         3.60621906851552    6.61261435544999    5.05068294246514
C         0.44634149764274    5.13913396311487    8.13196028505351
H         0.54627877371295    6.12979736599544    8.56659285688874
H         0.54206658890487    4.39546921947242    8.91986269528378
H        -0.55623715844305    5.04999071792712    7.71300253293603
C         5.13953503000029    5.63232302375244    3.08343501876224
C         4.65098446914923    5.95034583838273    1.81499458910827
H         3.98476555181847    5.24192933355562    1.30343738046974
C         5.02032960056339    7.12923118561762    1.20185076467034
H         4.64179407683595    7.36874179836181    0.21897773735503
C         5.89060541644229    8.01523791536542    1.83388121308528
C         6.37859600866203    7.68619819706883    3.09384157374000
H         7.05998727218471    8.36041487835814    3.59155383270421
C         6.01104839435291    6.50858661592630    3.71890277220538
H         6.41370454104086    6.26871156420285    4.69140980152091
C         6.27967146180665    9.29599786018510    1.16989312502832
H         7.19111978151670    9.70011752845383    1.60176487608812
H         5.48773085895581   10.03445666899925    1.29709942204783
H         6.42660600988331    9.14891728279465    0.10247074927267

