51
CSD_code = HEXJOL | q = 0 | S = 0 | Stoichiometry = C23H22ClN3OPd | MND = 4
Pd        4.40370067184815    0.12663506236088    4.00343434414397
Cl        5.31322056852623   -1.69967723881335    4.95479471446549
N         3.74441453755779    1.94515120715634    3.14818723570423
O         2.45217732909554    2.42632476226191    3.38209415873591
C         6.28628180216734    0.93701434880032    2.07770932720594
C         5.81990218619622    2.26772545750477    2.04456805063607
C         6.72946751100000    3.29412052956691    1.78006676593813
H         6.38781159179862    4.31814700402972    1.76701935040141
C         8.06897308302203    3.02848107532199    1.57793279225095
H         8.75501596213764    3.84159268448632    1.39399198626756
C         8.52777321348723    1.71951327097633    1.61279475229407
H         9.57329283307943    1.50720161346437    1.44705452619008
C         7.64306979746766    0.68808762538018    1.84998753534382
H         7.98376152393478   -0.33537439031340    1.87226041502607
C         4.42063301586139    2.61881662668460    2.28933214263041
C         3.82206588135445    3.79750514305065    1.58410681645283
H         2.78376624539351    3.57742242898998    1.34022710240790
H         4.36795318122328    4.03121193853091    0.67548520563360
H         3.82290071583991    4.66745274908762    2.24144275518586
C         1.74728068692026    1.68143975480568    4.36299865462698
H         1.64305462998505    0.63263034059818    4.03449136549726
H         0.76705486254990    2.16063061647461    4.40145107567059
N         3.39735015912662    0.80262651985657    5.87040132961972
C         2.44055493704472    1.71882252381952    5.70308902192741
C         2.14732478414623    2.66615239605671    6.67259281540131
H         1.37267459199174    3.39743645536646    6.50034718336238
C         2.86456881989688    2.64739569197260    7.85928587908925
H         2.65429991465772    3.36770798067856    8.63557654510521
C         3.85403325960224    1.69068495342743    8.02796523135541
H         4.43186050878017    1.64309793229806    8.93717038062671
C         4.09225049771241    0.78807478762085    7.00398665973190
H         4.84791614548166    0.01321345265280    7.08345903447520
C         5.42032360625736   -0.21556820695592    2.34428598019313
N         5.45223625815845   -1.23323319950062    1.62472485579084
C         4.86003314900319   -2.47558980673223    1.72840799219539
C         3.48595238733489   -2.67890323085799    1.91255271729253
C         2.99100745290335   -3.97418012373290    1.88493470533444
H         1.93115614408353   -4.13359885312217    2.02628247027602
C         3.82834528155731   -5.05747928443099    1.69689691035971
H         3.42435389626491   -6.05888478123443    1.68562631061207
C         5.18711192883326   -4.85228599536875    1.53170785916517
H         5.84788541995046   -5.69679826332804    1.39835010514562
C         5.71423437885782   -3.57380075745162    1.53355878718139
C         7.18493695802740   -3.33598322572329    1.38671819750055
H         7.70019220087334   -4.24908174724678    1.09936856222667
H         7.59311813629560   -2.98786042718274    2.33588628461521
H         7.36668861424727   -2.56508009861998    0.63902050752475
C         2.55266477685721   -1.53258594256804    2.18154324626165
H         2.60732790731504   -1.29171380110904    3.26495724137200
H         1.52656230140968   -1.81186168050089    1.94804809088295
H         2.82416375283982   -0.65157587848638    1.58792402268352

