20
CSD_code = HEXMNC | q = 0 | S = 0 | Stoichiometry = C9H7MnO3 | MND = 8
C        -4.29881669505144    2.20252584085874    1.16214853253343
C        -4.34262015870285    3.41987874403471    1.89410521357549
C        -4.42056516869296    3.39022186879235    3.27972592620360
C        -3.82730345334374    2.20248845298189    4.00176432387964
C        -6.88602464270653    2.20220360854712    3.91467691902452
C        -7.13578810084760    3.45761500693402    1.56047422628164
H        -4.09854741638934    2.20253945430214    0.09608706188032
H        -4.38441616685954    4.36541646427166    1.35554774207961
H        -4.48215900700294    4.32800058114398    3.82445294821651
H        -2.72439786896870    2.20249180271581    3.94758612814672
H        -4.10512071031806    2.20247404021864    5.05720041260173
Mn       -6.10409973057239    2.20247601924311    2.30812040423927
O        -7.33038887350915    2.20281913474902    4.97191689656332
O        -7.78098895871668    4.27448658524384    1.07214289278840
C        -4.34258455607974    0.98515142711672    1.89406869251987
C        -4.42055173864476    1.01476691316833    3.27969146815835
C        -7.13568532676597    0.94730846786743    1.56038651475500
H        -4.38434091840143    0.03962947435223    1.35548452536270
H        -4.48212343699857    0.07697485787092    3.82439140126062
O        -7.78117707142764    0.13053125558733    1.07232776992926

