65
CSD_code = HEXMAA | q = 1 | S = 0 | Stoichiometry = C30H30N4Rh(1+) | MND = 6
N         2.31500344594508    2.90706096339141    1.87232922097167
N         2.83430526653120    4.93739413188082    1.69057079660743
N         2.84613187217496    6.25600063839313    1.86018216895013
N         2.36413714497399    8.18044117792252    2.55755185239297
C         3.48162346107072    8.30861703405184    1.77756951412872
H         3.95484255325948    9.25431931335981    1.61466031850521
C         3.81329673617311    7.06161711590154    1.31124162398281
C         4.81274082634454    6.42833472790993    0.50386286739201
H         5.56888110968539    7.04497541207834    0.04841469406569
C         4.80435542741003    5.08312060698612    0.33487212697284
H         5.55356939461555    4.58879056146120   -0.25998832418885
C         3.79276332954700    4.28269380881321    0.95786887335059
C         3.43701050379044    2.96378053163732    1.09064958388474
H         3.89830255456788    2.08528840823085    0.68954952245772
C         1.92118326716573    4.14528439746372    2.26768297463997
C         1.95106874512529    6.89094156061528    2.63025753706773
C         1.83084539004720    9.28162809268904    3.32007179598184
H         0.77822755488174    9.07821590583520    3.53342639038313
H         1.89270627578722   10.19199670544093    2.71852665353346
C         2.59336934406809    9.47179068894249    4.61609780735356
C         3.01379407209271    8.37794490289607    5.36189740716365
H         2.81071248079131    7.37113073523635    5.01602717374875
C         3.69542933765987    8.56539994533845    6.55136604971375
H         4.01793505544230    7.70895224662672    7.12365470813185
C         3.96167940095347    9.84571209318221    7.00591008275341
H         4.49336689242734    9.99053370311009    7.93331756035304
C         2.86643955111548   10.75309266739815    5.07410311834925
H         2.54315978778893   11.60885234412244    4.49977766244965
C         1.71034163732712    1.66243202782267    2.27813377517343
H         2.16171038035794    0.85909481259942    1.68691100068902
H         0.64078737264137    1.68771359428851    2.05023705174565
C         1.90005059693609    1.36862271503557    3.75119558406090
C         0.98939654286161    0.53908406428938    4.39541436851715
H         0.15818137883082    0.12681207934596    3.84248300468726
C         1.14170626626031    0.24243680114285    5.73765422807326
H         0.42919561324337   -0.40319126989803    6.22709473165888
C         2.20241743740183    0.77649448523264    6.45058673307364
H         2.31931296444742    0.54907744573478    7.49865209129221
C         3.11417652346451    1.59903494326682    5.81283390116206
H         3.94671007409288    2.01276463898427    6.36094778202944
C         2.96804994342623    1.89075440340831    4.46707862348898
H         3.69412588633543    2.52764246288873    3.98196010944383
C        -1.04761409282585    4.03590560198828    3.12802851610767
H        -0.78892813735454    3.31852530852179    2.34935419282851
C        -0.48456007194393    3.87684160819590    4.38023468443777
H         0.22782029316879    3.06646295620191    4.52175563507558
C        -2.40759203662021    6.14629957530252    3.55179539156457
H        -3.04206323158694    6.81158134523542    2.96453983991408
H        -2.87758156768036    6.03169963678772    4.52777096960232
C        -1.05067602851925    6.78794616704307    3.72461174969482
H        -0.89425039565275    7.66690544839399    3.09864110623817
C        -0.26873361507139    6.64453465335421    4.85702318108393
H         0.43316973255669    7.43870168972644    5.10601994502461
C        -1.11676538102105    4.37563684895330    5.65779958837065
H        -2.20075127170253    4.37945248518402    5.54974573552150
H        -0.87434395290079    3.68142748402267    6.46371057896163
C        -0.59956039511552    5.77361145778951    6.04319859819278
H        -1.33443438700690    6.28698699050585    6.67082372357130
H         0.30954284730175    5.66257883702981    6.63997557326499
Rh        0.58426950936812    5.42417970683210    3.30305646929039
C         3.54480294275063   10.93890979559246    6.26604955229262
H         3.75031520340750   11.93926383688002    6.61389224775308
C        -2.31704970291111    4.79152742963543    2.82661428604045
H        -3.17810781450981    4.16847646488363    3.08697816006490
H        -2.35955185789209    4.96336104261358    1.74784552906596

