57
CSD_code = HEXNUV | q = 1 | S = 0 | Stoichiometry = C25H21N7O3Re(1+) | MND = 6
Re       -0.10371421850847    2.34698561382181   12.13379602825441
C        -0.56377763329506    1.38933082046037   10.49126347728703
O        -0.78488814515326    0.83372072119075    9.51972318476180
C        -0.46636607178289    0.76536448514328   13.22970221484197
O        -0.63626085573351   -0.14690471171160   13.88938762739176
C        -1.95352535633127    2.96655597840015   12.28962856361678
O        -3.01288245391694    3.37320173654383   12.40291447571022
N         0.65835540184931    3.43227167244138   13.83745132146451
C         2.00487480019303    3.40370674555446   13.94805697590787
C         2.70436597987467    4.10103782909969   14.95524537617062
C         1.94764226047861    4.84380400480042   15.87673478063815
H         2.44652372231724    5.39013281353312   16.66226771010556
C         0.57775560200228    4.84716221052227   15.76190305899348
H        -0.03961070947562    5.39320866295125   16.45634559816141
C        -0.02611512471741    4.12846922310479   14.72855406073186
H        -1.10429482978321    4.11647120735702   14.63362440539166
C         4.12577739975325    4.01394565361959   15.00165587528329
H         4.64191611868753    4.56140392586603   15.77509969464462
N         2.01286703826716    1.92766019318120   12.08007690515846
C         2.72881944910270    2.60164973007902   13.00741707567401
C         4.13442450264759    2.52067651883523   13.09557341080863
C         4.79693027852657    1.69543270674260   12.17172697413115
H         5.87186061085250    1.60741722222631   12.20723852992805
C         4.05288931368733    1.00419934915018   11.24528933843926
H         4.52157119538929    0.35035509745991   10.52804997493843
C         2.66426298901010    1.14746566343615   11.23519684217794
H         2.06729687223273    0.59827812271360   10.51857949094468
C         4.81084858577570    3.25763228189386   14.11024823646716
H         5.88667475259752    3.18746520074248   14.15537255762671
N         2.20230826104397    7.63735917783967    7.64350282174271
N         2.28908389937535    8.91076765165177    7.38710959045502
C         2.89559363995136    9.47297250235255    6.19631489729484
C         4.07193365244340   10.33659432598693    6.65298853256199
H         3.72716463399687   11.10745424634597    7.33776793516543
H         4.53269514630799   10.81246360533387    5.79253357724771
H         4.82270534738297    9.72973647696250    7.15525715655206
C         3.35572638759154    8.32841680912433    5.30363046711712
H         4.08799240607343    7.71038495082732    5.81706533531736
H         3.80910701936685    8.73157056563253    4.40294883323408
H         2.51463605101706    7.70071079901079    5.02019406355900
C         1.83144204711638   10.32796820274164    5.50839048730872
H         0.98881015135406    9.71476911378111    5.19577442861115
H         2.25580951844642   10.80440544727198    4.62970172233389
H         1.47230124855306   11.09749365282410    6.18707117052327
N         1.76548256464379    9.65824152570049    8.32428480726966
N         1.31003096169640    8.87723995955975    9.23179175792651
C         1.57337417469025    7.62186127279898    8.81989836712945
C         1.20806185873760    6.43683706679288    9.55507228092407
C         1.56272413881176    5.16190467943043    9.11434130049329
H         2.12611555280554    5.04145608646526    8.20352369240296
C         1.17036928142900    4.06726695834795    9.85445014159656
H         1.42865202874803    3.07131196792064    9.51706781056217
N         0.46191366338655    4.15712151120140   10.98505396283405
C         0.11716988576528    5.38094238902576   11.39987605542079
H        -0.47631357526692    5.44300763152236   12.30338616467260
C         0.46623367402551    6.53490257286346   10.73278197025885
H         0.16655490589946    7.50363817148302   11.09799690389848

