50
CSD_code = HEXRAF | q = 1 | S = 0 | Stoichiometry = C19H27CuNO2(1+) | MND = 2
Cu       -3.49118211591838   -2.11987298907560  -30.48178256295181
N        -2.60558649449476   -3.26764614425351  -31.59542197390246
C        -2.06839573622218   -4.01969757339284  -32.27914793046822
C        -1.40318810505696   -4.93880571586035  -33.12176138412178
H        -0.32381632800153   -4.83648526063967  -33.00026187772448
H        -1.66736234923930   -4.74300522751382  -34.16201041136986
H        -1.69847935187883   -5.95661262613832  -32.86249388342835
C        -4.45613505683161   -0.89687977267231  -29.25812387745096
C        -5.15021592218327    0.26907808408669  -29.69829950861519
H        -5.64993666833939    0.87277993622577  -28.95133791384558
C        -5.20496928237151    0.64685024704649  -31.00542721556911
H        -4.70629073680674    0.04786164875799  -31.75793536636806
C        -5.87997662757963    1.79372310342186  -31.47722261320242
C        -6.01271217316709    2.28650015771491  -32.77120545779589
H        -5.60189305919263    1.85129062763484  -33.65928245369864
C        -6.78243429075733    3.45103076077167  -32.67515898706461
H        -7.08680157470945    4.09743972749011  -33.47178225485220
C        -7.07081808027355    3.59814080566250  -31.34053037276579
H        -7.63301435255675    4.34846643199855  -30.81821615745777
O        -6.53836387600802    2.61779943624301  -30.62169190490126
O        -4.55148625228894   -1.03153354987449  -27.96042498799332
C        -3.93687460345454   -2.11480618939136  -27.28089404579760
H        -3.43409828085948   -2.76076782485584  -28.02140535367463
C        -2.91524386443316   -1.56858287940966  -26.26752989143828
H        -3.47245951085834   -0.93383898824994  -25.57005594410866
C        -1.84860053086166   -0.67545338335057  -26.93668016174852
H        -2.37952084066117    0.02972002956327  -27.58841442282526
C        -1.10083546148767    0.14814044430641  -25.88861585402387
H        -0.42991768246108    0.85026206522075  -26.37693385152257
H        -0.50551051220999   -0.49043890732249  -25.24191901808280
H        -1.79499442713780    0.71392025719836  -25.27239075269164
C        -0.84666142095517   -1.44612660603254  -27.79539054934221
H        -0.19135392335033   -0.74358137162864  -28.30490171271845
H        -1.34553640567375   -2.04792380444588  -28.55460441920895
H        -0.22867447917853   -2.09551785763941  -27.18191046026509
C        -2.33903571444745   -2.75212649409661  -25.48859549651062
H        -1.61794327697886   -2.38657198561491  -24.75854423411024
H        -1.81997383269300   -3.42629219818418  -26.17193072763581
C        -3.43999844747106   -3.52520185651510  -24.76928975692469
H        -2.99960502953963   -4.35387186890391  -24.21339951904374
H        -3.94055886761615   -2.87207132354685  -24.05205259097530
C        -4.46612616276256   -4.06380119140955  -25.76492125773029
H        -3.95884330865534   -4.74919433134464  -26.45408877493677
C        -5.58258545900802   -4.82184648864946  -25.05382337155389
H        -5.17309104346502   -5.65606909411488  -24.49058185741389
H        -6.30126804588908   -5.21181673931512  -25.77042221625300
H        -6.10727612871818   -4.16724229608439  -24.36229097323457
C        -5.04242290761209   -2.90087884590832  -26.57217904482832
H        -5.57978665743500   -2.22279768427525  -25.90692974306682
H        -5.74884474023150   -3.27064469361606  -27.31928490278020

