111
CSD_code = HEXROS | q = 0 | S = 0 | Stoichiometry = C55H50O3P2Ru | MND = 6
Ru       15.99457442922905    0.11616362517556    5.32453336195359
P        13.83218259477832    0.00660405833882    4.49138110425238
P        18.30522796976810    0.20121913685173    5.34571234190053
O        16.31601274729443   -1.87365293725877    4.76029510543588
O        15.29325068871043    2.69108275133578    6.64592351595709
O        15.91057788226598    0.58014726097703    3.18188870660704
C        15.74933655277337   -0.86184379768242    7.08284467724833
C        15.43038759842181   -0.33559985852441    8.33917624233756
C        15.14014284337096   -1.14221433427251    9.41876377953477
C        15.14981110567217   -2.52735468807551    9.28059317657624
C        15.47346632276123   -3.09095194675496    8.06993547386599
C        15.78997931035676   -2.28133257279892    6.96733111276942
C        16.15615076905391   -2.73669508009034    5.64091343520106
C        16.33485589090145   -4.19980559660761    5.22391495625825
C        14.95861666642694   -4.88126772743132    5.25112759889341
C        17.34342756003735   -4.93979421513740    6.10922992565230
C        16.86841279123446   -4.24383243152731    3.78695273704648
C        15.61353835114658    1.73831761830931    6.07308490578258
C        16.21041197469842    1.70163237156031    2.58157826394721
C        15.96283325522828    1.83823076227338    1.20526568657797
C        16.27760294141189    3.00273640134008    0.54067367604171
C        16.85073332386831    4.08126042916493    1.20066021809106
C        17.19352219240809    5.35261172346826    0.47923550628701
C        17.09975927660546    3.95412851712752    2.56167193594419
C        16.78968386713925    2.79637628431684    3.23987819834859
C        13.28589186398271    1.30962358721404    3.33987462679329
C        12.62893081069727    1.00754759124614    2.15238272830092
C        12.28197587380732    2.01753590458841    1.27241214045757
C        12.58662017688171    3.33575532410268    1.56320888452205
C        13.22980419353455    3.64497395531492    2.74950310872904
C        13.57639236935150    2.64016135654299    3.63243745262785
C        12.50022539181201    0.00843588051183    5.74889722658793
C        11.54340758308710    1.01227365110550    5.83356281453600
C        10.61935612831902    1.00776252025531    6.86482091704275
C        10.64269761390476    0.00680718574024    7.82046105377322
C        11.59485128395399   -0.99771968888082    7.74377865077963
C        12.51872704406839   -0.99349588404932    6.71802291387217
C        13.47604762444261   -1.51149499872365    3.54271673560274
C        14.34209993887916   -1.85190738130736    2.50454714334083
C        14.09736402172391   -2.97026450252573    1.72882468493215
C        12.99250676399381   -3.76766215322935    1.98390068353821
C        12.12999366407631   -3.43510284590316    3.01486749385174
C        12.36388618740767   -2.31095214601298    3.78983578502953
C        19.17233055890017   -1.30041837413929    5.93185179354874
C        18.98204258034509   -1.62370244245361    7.27364245771982
C        19.65225677761194   -2.69193047367320    7.83671545482264
C        20.52182029745286   -3.44744168044704    7.06423806544791
C        20.71181354447135   -3.13210713500370    5.72917198445094
C        20.04123824275783   -2.06139559358537    5.16060943143840
C        19.32569893966355    1.39007585617943    6.27907530519089
C        18.73999523780511    2.29640273334540    7.15092255652550
C        19.52847130928813    3.17324674723069    7.87711253431359
C        20.90524661347555    3.14293851886099    7.74001478154483
C        21.49650326548178    2.22859361298837    6.88076288904276
C        20.71299922448361    1.35214710235920    6.15560976506924
C        18.87493286102636    0.39089258864740    3.62916242085351
C        19.54158955358900    1.52241000094894    3.17292664350064
C        19.80618060491755    1.67201386045454    1.82302719511626
C        19.38872021471834    0.71050162331326    0.91949277495350
C        18.71152786051614   -0.41254548751364    1.36665422216880
C        18.44940730288865   -0.57163102347428    2.71391763749120
H        15.39988370467527    0.73792356388594    8.47447412976621
H        14.89088906249982   -0.70071839859530   10.37353683587862
H        14.90072859132164   -3.15817256878714   10.12175124110067
H        15.45587770963811   -4.16553105164875    7.98394037165810
H        15.05106134958805   -5.90530406099675    4.89452892005681
H        14.53413546106334   -4.90315914230151    6.25001571488309
H        14.26566271008294   -4.35300460509421    4.59914557512476
H        17.06421765838375   -4.94891582053139    7.15611869052736
H        17.42597007576732   -5.97058397223420    5.76911103107404
H        18.32187997342524   -4.47321242790580    6.02901060175041
H        16.19867536464409   -3.71807988037808    3.11153919433592
H        16.95466364869084   -5.27681810232075    3.45697937072465
H        17.85316333753986   -3.78271718497529    3.73548763950753
H        15.51296695532129    1.00929395888650    0.67646418166500
H        16.07170789080547    3.07551370809244   -0.51941507699519
H        16.63986287612690    6.19314300078522    0.89854103774616
H        16.95193152326623    5.27485806597666   -0.57831390604119
H        18.25642699889772    5.57546016646619    0.57567094129774
H        17.54687520666583    4.78072976151697    3.09882937337825
H        16.99650353453594    2.70910889258344    4.30528102990981
H        12.39023003647496   -0.01757312808114    1.90733025006778
H        11.77612206419224    1.76965542406888    0.35025936682381
H        12.32639714870331    4.11909617746414    0.86697742744389
H        13.47357721949966    4.67030468784639    2.98415770256877
H        14.07898225805394    2.88756251303656    4.55466345602707
H        11.51938405107082    1.79808752460619    5.09177979893137
H         9.87884278025901    1.79240566451628    6.92246368035175
H         9.92209562543357    0.00909490118934    8.62503103885391
H        11.62053690891400   -1.78114298768633    8.48743064327538
H        13.26368001337852   -1.77589469901782    6.65597764830932
H        15.19777999391415   -1.21883413190594    2.31409543567517
H        14.76740849408168   -3.22146702964527    0.91833247878132
H        12.80262623307767   -4.64280339332194    1.37962685440545
H        11.26448137242126   -4.05013622609815    3.21591449994660
H        11.67368908084856   -2.05697112027123    4.58136594331334
H        18.30742201013571   -1.01957817365708    7.86830767593530
H        19.50044367515989   -2.93610282120639    8.87772311445893
H        21.04951445185610   -4.28180296976992    7.50237280507852
H        21.38955673468890   -3.71961035420541    5.12627503692719
H        20.20257608179013   -1.81524474595032    4.11993612929906
H        17.66545853386670    2.30350848030884    7.25908772433080
H        19.06576745143348    3.88000156860226    8.54993921293139
H        21.52109429060075    3.82711307271469    8.30493937558786
H        22.57170581587142    2.19923209820630    6.77949573412542
H        21.17158493153991    0.63425854582694    5.48870483408847
H        19.84266467297454    2.29253570947111    3.86884698018694
H        20.32041283776347    2.55525738669611    1.47422417288312
H        19.57884108151359    0.84238723652419   -0.13547893988147
H        18.37232837831871   -1.15644219666425    0.65977062382561
H        17.89195971027538   -1.43010445998969    3.06492379801287

