110
CSD_code = HEXVAJ | q = 0 | S = 0 | Stoichiometry = C46H59IrN4 | MND = 5
Ir       13.46078889352642    1.58768743651965    4.46666910960192
C        13.93253822104806    1.56530510162738    6.47306284380315
N        13.65962039901220    2.50052293167074    7.39921440495629
C        13.89573418334865    2.35114766971708    8.83009413047296
C        15.35616227945523    2.56139947880185    9.22874767320884
C        16.27079455322143    1.79190263774255    8.27911855450113
C        15.67022069877119    0.43485058958464    7.92419286763660
N        14.68782675216550    0.51477539504936    6.83936656251968
C        14.88216443504827   -0.50849820652668    5.85281380932525
C        15.39022280388133   -0.13784184148987    4.59010976066433
C        15.58945368177678    1.27909947561724    4.28092776515057
C        15.65455355891369   -1.16314328255142    3.67661394361211
C        15.45277309059318   -2.49333706588162    3.99421739052449
C        14.93627470960813   -2.81821242115314    5.24170350800402
C        14.63486514632282   -1.83593193230073    6.17607587008686
C        14.06415254028326   -2.22481146473844    7.50901729287052
C        15.83079686298488   -3.58423128173316    3.03540474048370
C        12.90528926457836    3.66764426111540    7.06284914262311
C        11.54127663007641    3.70857388692257    7.36015495953574
C        10.81895378099301    4.85257221845544    7.05793179650317
C        11.42345835602218    5.96149274968765    6.48705461375413
C        12.78588738657771    5.91491289076500    6.24134045079672
C        13.54301011254781    4.78839170783230    6.52429364069006
C        15.01611554637479    4.80216018598046    6.25483961547496
C        10.61158408062746    7.17708634967688    6.15240376575804
C        10.84383768567407    2.55978732075842    8.02876863892415
H        13.27198189129764    3.08037388158040    9.35083334225837
H        13.56774313360287    1.35388156598229    9.14126690119047
H        15.49038924050535    2.20672920076443   10.25329517910322
H        15.60419380652677    3.62363207598150    9.21086834689305
H        17.24943914375902    1.64684392037670    8.74082533492819
H        16.41682748097863    2.35968564498446    7.35901372912489
H        16.46762020145333   -0.22044844702800    7.55915820515351
H        15.25120675339038   -0.03321558628802    8.82194001603150
H        16.06001503975216   -0.89933719638771    2.70796687252082
H        14.76248692963895   -3.85519757781360    5.49269912298917
H        13.55409455319640   -3.18133345380894    7.43246276547984
H        14.85259419859426   -2.32634063476458    8.25685954171878
H        13.35251715965515   -1.47722539190780    7.85592520098649
H        15.08124990694843   -4.37385219739411    3.03263297716292
H        16.78049988964581   -4.03020690813272    3.33588801851936
H        15.94414026430789   -3.19716166506879    2.02523629580258
H         9.75993281228739    4.87822734593294    7.27368430642016
H        13.27781544938071    6.77894842476803    5.81844542045243
H        15.30447861670451    5.73981844140000    5.78888481635822
H        15.57872951195984    4.68675253525622    7.17938415121158
H        15.27293989171732    3.98860709946685    5.57996898398941
H        11.24750563367305    7.98685827748876    5.80381729518440
H        10.05641027152824    7.52048426061655    7.02406180101801
H         9.88969599919624    6.94205833803801    5.37090842568961
H         9.81437359529558    2.49247172331352    7.68479764122894
H        10.82306401106039    2.70685938958413    9.11030877442639
H        11.34740900346352    1.62071447767915    7.81971902284612
H        16.09507007064182    1.40866934985075    3.32701664814582
H        16.19480857174573    1.77500958179484    5.04584801017039
H        13.46082918604831    3.09058692237043    4.46658025409940
C        12.98911816437458    1.56531315078243    2.46025443491876
N        13.26199269646074    2.50055284638072    1.53411294067772
C        13.02584694007633    2.35120232172842    0.10323487145050
C        11.56541175765474    2.56143654463360   -0.29539953545182
C        10.65080510725279    1.79190910195389    0.65423085938723
C        11.25140198077390    0.43486574634626    1.00914822381078
N        12.23381080038144    0.51479257624702    2.09396246417771
C        12.03946728771409   -0.50847432717427    3.08052182113107
C        11.53139467835439   -0.13781549192983    4.34322183832125
C        11.33214784062280    1.27912406387648    4.65240625268039
C        11.26706516219378   -1.16311412232709    5.25671925643802
C        11.46885298413387   -2.49330755860201    4.93912126034390
C        11.98535704941074   -2.81818603074390    3.69163839929093
C        12.28676809249448   -1.83590880111525    2.75726355149668
C        12.85748997909513   -2.22479041071118    1.42432661192828
C        11.09082774570091   -3.58419775899310    5.89793708827795
C        14.01632567588747    3.66767151130405    1.87048157598259
C        15.38033287531819    3.70859831251638    1.57315364911274
C        16.10265891409669    4.85260088946982    1.87534865447687
C        15.49816147340863    5.96152900025946    2.44621958175287
C        14.13573876674988    5.91494724098814    2.69196707720658
C        13.37861334324056    4.78841894213297    2.40904571121582
C        11.90551478928728    4.80218559251423    2.67853342611235
C        16.31004394543681    7.17712575087061    2.78083969369634
C        16.07775568364137    2.55980032417169    0.90454438707661
H        13.64957858016681    3.08044628178131   -0.41750393944274
H        13.35384712375271    1.35394727706955   -0.20796257436854
H        11.43117847847116    2.20678201480754   -1.31995216069335
H        11.31736742326301    3.62366588063714   -0.27750093451471
H         9.67216172161258    1.64683211665599    0.19252721200582
H        10.50476108137964    2.35967739190271    1.57434294216922
H        10.45401392069651   -0.22044864087563    1.37418186635648
H        11.67041262933294   -0.03318627754412    0.11139309676154
H        10.86160055425947   -0.89930600767653    6.22536438403718
H        12.15914809036166   -3.85517162622117    3.44064720758539
H        13.36754091121546   -3.18131606284778    1.50088384858520
H        12.06905537288540   -2.32631251633166    0.67647602895264
H        13.56913346642836   -1.47720806748660    1.07742680328811
H        11.84037083116016   -4.37382201345877    5.90070490242163
H        10.14112010870258   -4.03016814562206    5.59746045169400
H        10.97749297118078   -3.19712580044058    6.90810563483225
H        17.16167784882876    4.87825233326626    1.65958626937897
H        13.64381696539013    6.77898744157385    3.11486065491876
H        11.61713998201063    5.73989268734754    3.14438380907924
H        11.34287597838004    4.68665181253285    1.75402040714337
H        11.64873386482064    3.98870228260740    3.35350663876809
H        15.67413081220017    7.98691268256280    3.12940362303113
H        16.86521804657190    7.52049509078514    1.90917183868434
H        17.03193275056040    6.94211753502145    3.56233977180880
H        17.10722316617455    2.49248256699355    1.24850450340093
H        16.09851526165728    2.70685755826150   -0.17699807235002
H        15.57417962399839    1.62073456467833    1.11361446785022
H        10.82653362651378    1.40870317906014    5.60631701229658
H        10.72681720286823    1.77504685661595    3.88747595818936

