52
CSD_code = HEXXOX | q = 0 | S = 0 | Stoichiometry = C25H20Cl3NOPRe | MND = 6
Re        9.61431516440374    3.46476311154131    1.43107125203897
Cl        8.40376781750091    2.25857116826834   -0.06189451172879
Cl        8.30785164420677    2.47798680840079    3.14340229883083
Cl        8.17221727621030    5.24589238235868    1.30739234872130
P        10.68517045964756    4.30743758634283   -0.71748658641028
O        10.31703413558566    5.75390446666160    3.40976224740762
N        11.01734715041098    2.42026414639716    1.69237141072568
C         9.72838764972906    5.60404658694607   -1.54155075977598
C        10.21356003805982    6.88722811278417   -1.76393859779124
C         9.40175364921970    7.82675382368284   -2.37604824554097
C         8.11363753326885    7.49440688059913   -2.76053005118458
C         7.62984358191842    6.21374055222674   -2.53994755121454
C         8.43200572771710    5.26850309668897   -1.93174518879348
C        10.91723632687666    3.04510472311956   -2.00043239842876
C        10.81471255009116    3.37308071461476   -3.34855428903423
C        11.01789187786557    2.39811138961698   -4.30922832921802
C        11.32500994586030    1.10110498049378   -3.93260396593625
C        11.43296583281119    0.77487773484747   -2.58971900487651
C        11.22951316422498    1.74239212732503   -1.62392879132038
C        12.34706459170940    4.99041542446594   -0.45494038078924
C        13.47611734917900    4.48464651938895   -1.08760310617489
C        14.72363259436217    5.00551551047342   -0.78805679469438
C        14.85093063918193    6.02709699381573    0.13782511304382
C        13.72650673004715    6.53227864784998    0.77420718501435
C        12.48031551887007    6.01076993313025    0.48627312659587
C        12.16350451369205    1.79743801945863    1.93659710684107
C        12.20301207166565    0.39092278618120    2.03741043484284
C        13.39915515286569   -0.24915634405179    2.27365100125387
C        14.57336305758701    0.47955459463770    2.40739434754812
C        14.54716548813186    1.86524990077044    2.31091656558172
C        13.36262419722860    2.52768393536924    2.08205212137950
C        10.15137521351582    4.88464450706035    2.69085405229873
H        11.21812500186146    7.14981843860315   -1.46486408356507
H         9.77727100535024    8.82460931656471   -2.54869575625415
H         7.48373658552297    8.23515083049163   -3.23029057517384
H         6.62407403681713    5.95561411885233   -2.83601715958464
H         8.06300486073848    4.26807710014615   -1.74491840502169
H        10.57139730094224    4.38424449284044   -3.64389350059976
H        10.93098885410366    2.65206301536532   -5.35534990022266
H        11.47452418208903    0.34236174511424   -4.68622228893787
H        11.66718341169791   -0.23709382485740   -2.29502723491027
H        11.28959755089803    1.49399319328776   -0.57376351350640
H        13.37908656393191    3.68675315291427   -1.80938881219453
H        15.59973237687152    4.60991691693975   -1.27999030427812
H        15.82619672800021    6.42886030656183    0.36816006056747
H        13.82450623712182    7.32619720668058    1.49931751913683
H        11.59657938105030    6.38457570806355    0.98657612148168
H        11.27752839924864   -0.15423896346217    1.93394948740203
H        13.42126807183286   -1.32553575824173    2.35485386835597
H        15.50662126070208   -0.03076477050764    2.59006438361514
H        15.46112400255759    2.42987284777932    2.41939837459967
H        13.31616554499775    3.60349410541951    2.00732965987763

