62
CSD_code = HEXYUG | q = 0 | S = 0 | Stoichiometry = C23H29Cl2N2O3S2Y | MND = 7
Y         2.33519386859272    8.71396954608078   11.01571854669115
S         2.62785242703963    8.51623165439985   14.25277704046712
Cl        0.32412914208131    8.59928518346482   12.51552970989622
O         1.12203769076958    7.64998993947455    9.47940329408093
N         1.43506153234061   10.27765644288164    9.47056728864541
C         4.57507795956252   11.56732806129790   12.97810880254881
C         4.33778447516738   12.09799798884601   15.31850838465966
H         4.78930971774035   12.31587094472092   16.27522690280694
S         2.14909600587668    5.52697520743975   10.23979269753954
Cl        4.26696640378313    8.80087185580920    9.44507985236000
N         2.59590973113034   11.19381116054294   11.63115766714668
O         3.37725114127592    8.62115551264358   12.95670953056054
C         3.17984838143415   11.54723019447015   12.86284200868760
C         2.22424406772373    6.74198786601186   14.40304362972710
H         1.29071883078642    6.58420782690304   13.87196692001416
H         2.11055300090084    6.48332097101150   15.44915793749961
H         3.02500688454945    6.18056948379404   13.93274998013319
O         2.71675654478231    6.47230436411028   11.25433267069927
C         1.29638215827065   12.42109288679966    8.43522542665161
H         1.46270095204655   13.48481577463311    8.49334893824840
C         3.28386435167137    5.62056314261531    8.81379156004510
H         3.12186868082443    6.57439777190487    8.32027169428769
H         3.06548021484798    4.80378272391468    8.13477859118871
H         4.30663627783205    5.57648900164727    9.17325460338183
C         0.76429514449345   11.86706427127999    7.30328201079524
H         0.50228254049356   12.48752276271957    6.45771188758718
C         0.92348472914268    9.71617273798950    8.37096890526302
C         0.77877199835236    8.27759448085717    8.40245528540923
C         0.87019103638419   11.79482490558551   13.82765451578829
H         0.39632136886909   12.01349042174894   14.78064999879464
H         0.52799368964407   10.81754119273236   13.48416985354435
H         0.54163905844686   12.53550623360590   13.09879942935893
C         2.96080682115296   12.07499204820016   15.18993765743060
H         2.33605104207051   12.27494152233994   16.04786375393889
C         5.13557386791714   11.84600068049018   14.21603444138682
H         6.21160822555272   11.86619841003420   14.31210909791734
C         0.27829659519328    7.66974233073690    7.24925170556074
H         0.16346273771238    6.59625542163034    7.23977747581464
C         2.24826101306266   12.07237308315391   10.76742975649925
C         5.43108372532321   11.28510022804722   11.78486728138386
H         6.48462677447495   11.30586592542744   12.05187994902564
H         5.25790365652734   12.01579748448852   10.99449060494453
H         5.19287443481688   10.30122373174926   11.37332452814573
C         4.01641220909715    8.46772946245643   15.45801054223797
H         4.49736480792116    9.43929921611748   15.42404812098609
H         4.71937102199627    7.69729937719394   15.16587255998039
H         3.62222410382637    8.28395233016200   16.45006605601720
C         0.56147240504361   10.47211528361838    7.21939293483897
C         1.63765615077132   11.58775409604926    9.52343971853093
C         2.35989045255328   11.80642776977761   13.96825275203357
C         2.43967742264344   13.54921972762800   10.94667069572801
H         2.86551301263036   13.76016027909654   11.92524724318988
H         1.48647172366980   14.06685373812227   10.85154409514840
H         3.11249371500813   13.93075499277468   10.17976877457880
C         0.05261475921724    9.79807514966863    6.10408931780354
H        -0.22660468365244   10.35925629756760    5.22547641350898
C         2.81805927539284    3.91067032840394   10.84703615380162
H         2.29952147480207    3.66787276021528   11.76829169509784
H         3.88002443692870    4.00785480097759   11.03815958695540
H         2.62797658274357    3.14234420283114   10.10753049215914
C        -0.07654207098215    8.42554828308706    6.13780250593987
H        -0.46525570021492    7.91269852601975    5.26919852491817

