73
CSD_code = HEYBOE | q = 0 | S = 0 | Stoichiometry = C37H31ClNiP2Si | MND = 4
Ni        2.88784850226537    3.82220364070706    1.76570166965105
Cl        0.77482850383990    3.41770894106287    1.68912330832619
P         3.12010137591739    3.61248747779242   -0.34627993926729
P         3.11948827653029    3.23649865636071    3.81896956948386
Si        4.98326333333534    4.47932002632882    1.84858765549236
C         5.31940148559216    6.33972584634804    2.27400977216456
C         5.75108940100986    4.20772322865456    0.10598659519309
C         7.07791595826541    4.41291398584433   -0.23296051955123
C         7.49422862965532    4.29017561982915   -1.54766022012194
C         6.58153376277734    3.97025845319309   -2.54116502259350
C         5.25157782248333    3.76581938976453   -2.22012137126585
C         4.84128812836865    3.87999422451238   -0.89913854284639
C         2.13152215924264    4.62818905559598   -1.47852131745717
C         1.71169441742085    5.86248830793610   -0.99489789537515
C         0.98146596747636    6.71372755971466   -1.80223631219121
C         0.66894626972944    6.33267986523150   -3.09696193342271
C         1.07886591230748    5.09976710622409   -3.57918989613026
C         1.80830723743117    4.24345304751641   -2.77467694489115
C         2.78047681031506    1.90501487520609   -0.86480014769302
C         3.80729465422146    0.97233354027265   -0.97204190374321
C         3.51212264907520   -0.34721277313416   -1.26386383086170
C         2.19592024340695   -0.74387179290354   -1.43563257021360
C         1.17001626159636    0.17981049787338   -1.30947309224430
C         1.45665872911386    1.50006421228197   -1.01955121689697
C         5.79338609119811    3.49765892592254    3.29335822757616
C         7.14785587941098    3.31697406625819    3.51989415240054
C         7.58703817654430    2.65035308965749    4.65154713142377
C         6.67416606143903    2.15838357524682    5.57201822881477
C         5.31768430695015    2.33085840488050    5.36134614131915
C         4.88282643267186    3.00300821174285    4.22743529024025
C         2.39389184967825    4.09001564480636    5.23974951284181
C         3.15829942070122    4.75617507169918    6.19059603119357
C         2.53118935202130    5.43978527288666    7.21741652284764
C         1.14816504778733    5.47391370437633    7.28975056277007
C         0.38423960381608    4.83268814239667    6.32628776623695
C         1.00206582212450    4.14670488929286    5.29864592416400
C         2.51056245212820    1.52624077117203    3.96514681043822
C         1.96547726577072    0.98030618353942    5.11941275301098
C         1.55280912907074   -0.34106532928790    5.12013439331536
C         1.68213467940649   -1.11621321198222    3.97970162858577
C         2.22999548759125   -0.57441045230422    2.82738218396978
C         2.64450083086711    0.74202328727603    2.82319340145477
H         4.85237142636159    6.61881878399332    3.21283462707812
H         4.94941516327265    7.00087645862695    1.49756125712127
H         6.38909628763192    6.49293784208621    2.36821691357736
H         7.79009365040658    4.67782122345137    0.53415867696257
H         8.53158317247959    4.45059222406470   -1.80366296776091
H         6.90861832014552    3.88125020749441   -3.56709394148850
H         4.53665199058914    3.51929583514753   -2.99228939582165
H         1.94721357766118    6.12997240188834    0.02980841843131
H         0.64873755652274    7.66886919829886   -1.42331375890537
H         0.09448686223945    6.99308322623820   -3.72984837052714
H         0.82264860358192    4.80209809731241   -4.58581188667216
H         2.10870943211892    3.27234790725853   -3.14401077753928
H         4.83336471996484    1.28172006539707   -0.82392267383204
H         4.31176842677785   -1.06886758301859   -1.35084939126932
H         1.96948410720281   -1.77619564667528   -1.65973556043111
H         0.14304858898076   -0.13253926720103   -1.42896712111417
H         0.66211439721264    2.22098495292277   -0.88699225490033
H         7.86513365000016    3.69473081731804    2.80636340805392
H         8.64543669382850    2.51077469110372    4.81916581500096
H         7.02181341590093    1.63624943060448    6.45180134255826
H         4.59834557986803    1.94400687175046    6.07056553729716
H         4.23769066311096    4.73608084280669    6.12609571538197
H         3.12416926227723    5.95102573395660    7.96236662475758
H         0.66471138905474    6.00916157068287    8.09408574413529
H        -0.69393915253511    4.87365930983358    6.37514111921537
H         0.42201156141365    3.65981401590866    4.52512190541466
H         1.84895528763539    1.58789230394778    6.00655214937873
H         1.12098750166343   -0.76586424260778    6.01495264812700
H         1.34776979647130   -2.14337109521084    3.98666266541101
H         2.32392321542481   -1.17269138142465    1.93270416827542
H         3.05964047217827    1.18959196423783    1.92251680795121

