48
CSD_code = HEYMIJ | q = 1 | S = 0 | Stoichiometry = C21H20CuN6(1+) | MND = 4
Cu       15.70304425931734    8.46560525343931    0.54556808171981
C        15.33332561976940    8.28497565261936   -3.12617467471634
H        14.68313885359247    8.30774398554497   -2.25538091456948
H        15.11102519408029    7.40387498019408   -3.72498378152823
H        15.14252177551769    9.16219676482193   -3.74209391953972
C        16.75654909382933    8.26654732062232   -2.68603432855755
C        17.80898614857913    8.18798812580849   -3.60550821682453
H        17.57765714061744    8.13786928225274   -4.65849553251077
C        19.12739966558933    8.17348835850667   -3.19018283666435
C        20.24427444982511    8.08866292013497   -4.17460095448051
H        19.85887061701571    8.04331789341133   -5.18908774715325
H        20.84662439117243    7.19984460973789   -3.99194939218298
H        20.89487508361111    8.95789854845215   -4.08888631361587
C        19.38029899771801    8.24124131528898   -1.79967508822496
C        18.24979627961793    8.31710642940785   -0.96759687495083
C        20.68216395500034    8.23703810933671   -1.19839189605105
H        21.54407069344601    8.17929637111573   -1.84291591484408
C        20.84970709144313    8.30316501694150    0.14458235559674
H        21.82005682145814    8.30079795168352    0.61057500492744
C        19.70149735027321    8.37870549413532    0.97238644408418
C        17.50096123950602    8.46108874506867    1.35720699079897
C        17.74812448416290    8.58262743664950    3.79992371066313
C        18.66133537128446    8.60786878675295    4.84854609113151
H        19.71556984306144    8.56268993764290    4.62818048501592
C        18.20298845261874    8.69031482826047    6.15014208705509
H        18.91045006211520    8.71004093208776    6.96431714495247
C        16.84319224091583    8.74745004842316    6.40865655030436
H        16.48843202128716    8.81206615396421    7.42548072796952
C        15.93770244026003    8.72167693501699    5.35933992217721
H        14.87809324571698    8.76620744261749    5.55964338746277
C        16.38130821255419    8.63936534640534    4.05266334274399
H        15.68291857519694    8.61887511379711    3.22866928611871
C        13.98824066391712    5.99904456588521    0.63163381641090
C        13.24834838396618    4.81984521419991    0.93025515076208
H        13.90051839495049    4.08888097656785    1.40822570820104
H        12.84370010436142    4.39469653827553    0.01172556104300
H        12.42733709022986    5.06424931389398    1.60424999931265
C        14.09664015334444   10.99921792264635    0.32361629424176
C        13.40838817880489   12.23900227479755    0.45075180004596
H        12.39728881697624   12.06228308426684    0.81743998469846
H        13.35669125770317   12.73291096476868   -0.51950246517919
H        13.93892053195668   12.88170870104384    1.15332366097696
N        16.99045610562450    8.32945818783560   -1.38646525921642
N        18.45007192772984    8.38326968189295    0.38550585600564
N        19.56141813032999    8.45045058236562    2.26772536481814
N        18.22831435489184    8.49942623276229    2.48228380038101
N        14.64269245210646    9.99811112119689    0.20090923379479
N        14.57521378295035    6.94890854747182    0.36889826738966

