42
CSD_code = HEYMEF | q = 1 | S = 0 | Stoichiometry = C19H17AgN5(1+) | MND = 3
Ag        3.79365931835445    6.63066211145345   -1.16959513188730
C         4.35693486308496    9.92511831851921    0.64252334903038
H         5.13781606156785   10.62801510847017    0.35708782435497
H         3.61939987294912   10.46736911775757    1.23116505745618
H         3.88335906301054    9.52947860492544   -0.25599040492810
C         4.93701534411474    8.80978710217506    1.44039346921621
C         5.57259576808349    9.04913671908828    2.66286159823487
H         5.63643465569655   10.06292963760080    3.02660845932870
C         6.11320120728440    8.01596981369716    3.40213024330376
C         6.78939567606955    8.27427431982701    4.70427133451242
H         6.76176227417603    9.33254619672981    4.94694646025737
H         7.83000700444099    7.95526486374082    4.66304775810064
H         6.30078266805853    7.72155740938552    5.50530569937862
C         6.00196684336595    6.70488529966297    2.87842024718419
C         5.34297102200514    6.57317110165767    1.64273723863989
C         6.51428928515503    5.53498631258651    3.52836174964397
H         7.01856655497229    5.65134268876608    4.47323609390665
C         6.37770279989000    4.30375877214647    2.98248604889667
H         6.75348838252709    3.41040829659433    3.45059410613497
C         5.71008708132489    4.18408575320403    1.73971054643196
C         4.62217030006929    4.93834381871855   -0.05887608521104
C         4.36449303036102    2.69415171690830   -1.05118354192432
C         4.63908252929885    1.34290648738933   -0.86379046883730
H         5.16801895059536    1.03235827242260    0.02253415139631
C         4.23138111747056    0.42308406962330   -1.81194683511861
H         4.44501914341190   -0.62389223272722   -1.66477171437030
C         3.55253506388652    0.84274981203970   -2.94393384078593
H         3.23474439679515    0.12374927945717   -3.68260399892832
C         3.28123819632842    2.19001009561072   -3.12734078323422
H         2.75272535243111    2.51891439781399   -4.00861626547762
C         3.68349184379942    3.11949557754251   -2.18700835331812
H         3.46871115324674    4.17474136343880   -2.33482812295995
C         2.29700199938258    8.48368577758077   -3.38373124827916
C         1.62750628182145    9.27595075419187   -4.35268430102111
H         0.66517242597081    9.60274196946965   -3.95770713238006
H         1.46382239163662    8.68915752496990   -5.25693255533100
H         2.23270101363542   10.14967498389265   -4.59594933575285
N         4.82833502203560    7.58520489842333    0.94630197658306
N         5.21597732417452    5.31291073286977    1.10918532165913
N         5.44399772242351    3.13733025330013    1.00836119528645
N         4.79026208499337    3.60822979444357   -0.06770883943563
N         2.84087691009600    7.84725310463503   -2.59937096976269

