41
CSD_code = HEYNEE | q = 0 | S = 0 | Stoichiometry = C16H18FeI2S4 | MND = 6
Fe       -0.56959107434302    2.85968485123433    3.67384494218817
I        -2.54846403047617    4.52279901511400    3.64945325460424
S        -0.50499784700870    3.05509863664483    5.89705083941987
S         0.98415848205421    1.32885040935049    3.68098067643654
C         1.33641914863189    1.07152106094442    5.41349957161538
C         2.30153298072443    0.14362359507145    5.77213065372208
C         2.58101036664462   -0.07054448056608    7.10914464569177
C         1.91251994226497    0.65689171547774    8.08247111582750
C         0.96920254139310    1.60167860764408    7.72331971786282
C         0.67055363517152    1.80792802351014    6.38400523915650
C         0.11257697010481   -0.26538411741528    3.35442527558855
C        -1.96735185207970    2.44309094642384    6.78749865002353
H         0.46990155971521    2.19017057493252    8.47719019348524
H         2.13986489113244    0.49952864575671    9.12549458744254
H         3.32965842608941   -0.79485720100350    7.39036266697768
H         2.83171174273899   -0.40057545262119    5.00444573186308
H         0.03530344532087   -0.33641065055537    2.26789448527789
H         0.74053816812946   -1.07421378761029    3.72521260232934
H        -1.83806634833313    2.63296755305029    7.84764659331222
H        -2.80892753425206    3.01811585429555    6.41356800517197
H        -2.12182152602082    1.38440558016626    6.60433154632037
I         1.40862706693583    4.52296556727207    3.69647721723147
S        -0.63514785501434    3.05511544046502    1.45040431927413
C        -1.81058451467245    1.80796762001250    0.96307716241914
C        -2.47640848097799    1.07153852880074    1.93354475482463
S        -2.12390049239025    1.32911640921337    3.66595919354766
C        -1.25257123747614   -0.26526162899242    3.99259926423146
H        -1.17529999616055   -0.33628679482232    5.07913135056779
H        -1.88061995837252   -1.07404624329822    3.62185381790834
C        -3.44152137848200    0.14363028303094    1.57493759378792
C        -3.72102181857378   -0.07052406576801    0.23792218473898
C        -3.05256158643315    0.65694866186330   -0.73540235138412
C        -2.10924775401457    1.60175208286655   -0.37624618380356
H        -1.60997884969983    2.19027693060208   -1.13011203457674
H        -3.27993206476261    0.49960432849462   -1.77842338823046
H        -4.46965127135533   -0.79485671294269   -0.04329622542244
H        -3.97167187584751   -0.40058456292102    2.34262942368130
C         0.82713842902736    2.44315509945409    0.55973168649703
H         0.69784910506692    2.63302503156926   -0.50042812205374
H         1.66878452834331    3.01813921192958    0.93356574046875
H         0.98168791725694    1.38445543332554    0.74280360197543

