59
CSD_code = HEYNOO | q = 0 | S = 0 | Stoichiometry = C24H28FeNPS4 | MND = 6
Fe        0.41961266767906   14.76313646091088    4.01650938442860
P         2.04448659169802   13.65035992010864    3.09165793529345
C         1.22266323107259   11.44712680046834    1.55352466188648
C         0.86516998958152   10.12187237389732    1.38438111468515
C         0.97057210954690    9.23180880264122    2.43892892260703
C         1.43013886784177    9.67155694597264    3.66954635128428
C         1.78123041653646   10.99634385146537    3.84369554827660
C         1.69470897771522   11.89334119634982    2.78227158922958
C         2.59672754830898   14.25125177353512    1.45355600200551
C         3.66288146034473   13.55083566239367    3.94166470109900
S        -0.83529091731041   14.32720178774162    2.15373711637976
S        -0.44961384828180   12.98977445591546    5.01059634259979
S         1.11912989748426   16.64902364512534    3.11105899802910
S         1.63071626586053   15.18105079616612    5.89589003648602
C        -1.28987625170428   12.12050927348149    3.69776087221273
C        -1.75883375429048   10.83993760885318    3.92630893685187
C        -2.43895944303061   10.16759555871757    2.92858685610424
C        -2.64435396683736   10.78924198883130    1.70301812830221
C        -2.16889869646912   12.06032400760632    1.47097306216695
C        -1.46532423087437   12.74925654395764    2.46377789870040
C         2.30247614556585   17.28392984294535    4.28536038574371
C         3.02078795978893   18.42273011550640    3.96311431267130
C         3.94233887037680   18.93325342522738    4.85708107624182
C         4.14528298645622   18.28589860475044    6.07178743061782
C         3.44178907504780   17.14645691629438    6.38809639580420
C         2.50368368594647   16.61235631669208    5.49488231214167
C        -1.93816618598452   13.76439410009591    5.79543850658261
C        -1.66715276101842   15.24008812872113    6.00404117887043
N        -1.17904083128002   15.81557533250960    4.75711642144945
C        -0.31902523332309   17.71126264362786    3.53072652539610
C        -0.90507508933669   17.24489138363267    4.84758717746321
H        -1.58715311832158   10.38079132292508    4.88845148257947
H        -2.80547806249023    9.16769948875006    3.10245723189163
H        -3.17736078297216   10.26921721925247    0.92025576616968
H        -2.31808039664650   12.54512248288050    0.51800454235290
H         2.84733058568422   18.90265072465811    3.01054950351918
H         4.50050502784774   19.82366532274076    4.61202127387035
H         4.86668858442528   18.67869715963625    6.77352135130510
H         3.59940788662287   16.63748845662514    7.32669826594482
H        -1.87890824494375   15.66764448299242    4.02293318921567
H        -2.77414542537597   13.59938027273560    5.11599400825206
H        -2.12224241926847   13.25401867559726    6.73859018383216
H        -0.88180426979277   15.36381118408256    6.75517694083562
H        -2.57855533196877   15.74654930658407    6.35389778156531
H        -1.02110895720604   17.56882723653208    2.70955662081051
H         0.01415342408179   18.74623484722533    3.56799412366416
H        -0.17929396710763   17.40160281191653    5.65149897205306
H        -1.81555585595448   17.81498412617949    5.08476910980475
H         1.12020607575186   12.13912563361455    0.73137690369655
H         0.49445366904599    9.78463381847139    0.42725158047220
H         0.68679383867734    8.19831548778918    2.30460780732901
H         1.50506642535314    8.98089485542068    4.49715215178769
H         2.11368392044901   11.34764982924497    4.81022370362906
H         1.73096178024474   14.43974483284560    0.82210671931127
H         3.25918341050308   13.52272140649256    0.98660540365568
H         3.12707761112893   15.19185636312792    1.60145854709848
H         3.52567544022852   13.18659088277073    4.95675220283209
H         4.33830115336677   12.89521553040025    3.39236905991433
H         4.07791246156666   14.55737997434978    3.99484939093450

