42
CSD_code = HEYPAC | q = -1 | S = 0 | Stoichiometry = C16H17FeN4S4(1-) | MND = 6
Fe        7.85668431982514    8.33923273187338    0.18854262007819
N         6.01300246788406    9.15450572524565   -0.57992828373383
H         6.28696456730078   10.13134996709378   -0.65992242628790
N         9.45939982492122    7.53263385504221    0.96863010200013
N        10.29429385341710    6.83047248844985    0.56527759822712
N        11.15789352871860    6.12760491950178    0.30592689114578
S         8.38241915164812   10.35021875635811    1.25570503878072
S         6.67398159745799    7.83107762831167    2.03378712073660
S         7.34240312174261    6.50421955697191   -0.94665063132326
S         9.03073060550513    9.10098693975198   -1.64356033728117
C         7.57353595130356    8.72289856204322    3.28941333164881
C         7.52466405943774    8.30400263032303    4.60326920584019
H         6.96962934807630    7.41057699401817    4.85259630418852
C         8.18688067450074    9.02531697944750    5.58280935619431
H         8.16165925783049    8.69604639140802    6.61192869690803
C         8.88237959395893   10.17502565890480    5.22674550437519
H         9.39782506508914   10.74612331514089    5.98823457360041
C         8.93352386938765   10.59104208546481    3.91516048348016
H         9.48537387869899   11.47603690820105    3.63468487200921
C         8.29963763557453    9.85953871729413    2.90203827032741
C         8.47924767875548    6.51589775382495   -2.32574095040152
C         8.62404261778721    5.37311582053717   -3.08799719953740
H         8.06243222147898    4.48813881182228   -2.82217916060094
C         9.47986105972746    5.37125381865231   -4.17485572944879
H         9.59954121558527    4.47873907674640   -4.77237016883837
C        10.19150304759976    6.52684956786563   -4.48091277792579
H        10.86698912483224    6.53034768856561   -5.32657916333717
C        10.05539628124757    7.66205540733505   -3.71664642452066
H        10.61538930701599    8.55678004930610   -3.94478588082444
C         9.20053307341470    7.68503408323338   -2.60444534348627
C         5.33750551798348    9.10411848859318    1.77159358113168
H         5.78288291284373   10.07388974711903    1.99088760313947
H         4.52255918877843    8.89609218552868    2.46474295072722
C         4.87556934498941    9.03253808399844    0.32761429493017
H         4.12149974914772    9.81268416004029    0.13537735665107
H         4.40750139660705    8.05913370170667    0.16282893427204
C         5.82865566964204    7.07364960355438   -1.86396599484680
H         4.98367365041966    6.64060687968745   -1.32905466100366
H         5.87291879351910    6.65354512127243   -2.86684370634313
C         5.76320664229207    8.59635120594879   -1.90439235280364
H         4.78490977130864    8.91673620620298   -2.30067386643103
H         6.54979936274750    8.96273172758430   -2.56808963134268

