43
CSD_code = HEYPEH | q = 0 | S = 0 | Stoichiometry = C17H21NO3Ti | MND = 9
Ti        1.74770332016377    2.52890493592005    0.54222872168134
C         3.09843010802799    3.74064872645101    2.11405168544287
C         1.80941997256055    3.59936134090894    2.67072442555017
C         1.59059263775379    2.22938990836962    2.91302284876680
C         2.72283474901291    1.52013658787965    2.47374983527224
C         3.66038792897767    2.45805256715042    1.98838902157041
N         0.77468352669239    2.36646123154729   -1.78542451394654
O         1.58121892470103    4.11657900711857   -0.15858515408324
C         1.29374636467221    3.51778464832656   -2.48604673877775
C         1.62956352957651    4.63662572763891   -1.42902166499277
O         0.13347721744887    1.84225452258181    0.69238727393338
C        -0.64405007379121    2.42679085481625   -1.49873126878502
C        -0.90015088285025    1.64489742860761   -0.18944270288258
O         2.74870632688137    1.43133031737061   -0.39448844183474
C         1.27028060497286    1.08838039707133   -2.25190029713627
C         2.69235921963606    0.90973918059980   -1.66659108861065
C         3.00686908305295    5.19545141074759   -1.73634957770227
C         3.17406527482663    6.39257797071105   -2.41765269288621
C         4.44604382184458    6.86557019888437   -2.69508293915320
C         5.55787161957354    6.14811120180738   -2.28960443240666
C         5.39574731565653    4.95237163309478   -1.60734106339548
C         4.12673247600584    4.47433111630582   -1.33455203192406
H         6.54907179977462    6.52083085284179   -2.50190378856686
H        -1.25890618986820    2.02823689385757   -2.32362559352953
H         1.28571099134274    1.01507204834372   -3.35163462847910
H         2.21475472392015    3.23524530497793   -3.00139948802260
H         3.42952573846642    1.42515299268865   -2.31321354963466
H         2.95367778591958   -0.16337694002674   -1.65181023231198
H        -1.85371049502489    1.98476339797941    0.25425985413805
H         0.62789216430732    0.30083310197557   -1.85222194300151
H         0.88416254597457    5.45200353745319   -1.51535509126196
H         2.30764284550266    6.95873927041811   -2.72934762716772
H         6.26242833963315    4.39210453773531   -1.28787743435493
H         0.58270015352939    3.90202175374903   -3.23245690383310
H         3.98156173019741    3.54061502914387   -0.79543304582592
H         4.56847679261395    7.79890952706189   -3.22495116811510
H        -1.00586778201892    0.56416127484566   -0.40854605300925
H         4.67440004958100    2.23350722310940    1.67994537175324
H        -0.90306646281101    3.47544796142488   -1.32876509935859
H         3.59888502544469    4.67929788509840    1.90872510573781
H         0.73274332251282    1.80469711432708    3.41785580710599
H         1.16045022269198    4.41122580836028    2.97629311131975
H         2.89823363291264    0.45886051072560    2.60082319271888

