35
CSD_code = HEYVOX | q = 0 | S = 0 | Stoichiometry = C14H12N6NiS2 | MND = 4
Ni        1.59397788061751   12.61270308779161   10.09718650715025
S        -0.14696066898656   12.77289595292932   11.87916572553324
N         1.85917152683194   11.02569136022368   11.00511412234496
N         1.01412180961155   10.34671110225097   11.73868714053030
N        -0.89561854328979   10.51576122178513   12.99248155526700
C         0.01104444728438   11.09778192071121   12.19342607069144
C         3.03791924017682   10.73571387846582   10.55935598310351
C         3.69306318276552    9.38797972444576   10.38304591149593
C         3.94943818362855    8.99145225083866    8.87329039371130
C         4.05892259898651   10.28159503055859    8.21698268283918
C         3.86352066979481   11.45502132108950    8.55368109170504
C         3.47657130979876   11.97835720346787    9.80311516427846
H        -0.86497209056669    9.52308438821259   13.14363038707087
H        -1.69366509132765   11.05106880823266   13.28318441932632
H         3.04981572478500    8.63988920099135   10.84547525608635
H         4.65695189548685    9.40338674772525   10.89758973347649
H         3.09923578574974    8.43896208533383    8.46692236186514
H         4.84178513347960    8.37129953255534    8.79547329818996
S        -0.14687711129071   12.45230587160601    8.31523745948524
N         1.85901852352924   14.19978274045013    9.18926511397703
N         1.01389919723267   14.87864967151938    8.45565817706824
N        -0.89575522199442   14.70931157172273    7.20178569221745
C         0.01092813713145   14.12745229662817    8.00091910719508
C         3.03767002044727   14.48992524044618    9.63515392684432
C         3.69256249368009   15.83775856927282    9.81164387294717
C         3.94863203118156   16.23429712798706   11.32145093651685
C         4.05829084221504   14.94413343476565   11.97768050122361
C         3.86316128992304   13.77067582219645   11.64090128619342
C         3.47645497428903   13.24732946940059   10.39138953595723
H        -0.86515332892830   15.70196768588660    7.05045066666977
H        -1.69360968996949   14.17384037234596    6.91088754062444
H         3.04924634067560   16.58575668090555    9.34916522503032
H         4.65652310938038   15.82255154477954    9.29722803643517
H         3.09825062471494   16.78657210804798   11.72773904918963
H         4.84083477297358   16.85463497442615   11.39943606775454

