55
CSD_code = HEYXEO | q = 0 | S = 0 | Stoichiometry = C25H27NORu | MND = 8
Ru        3.69820099975081    0.91939004122228    3.69167136864097
N         4.42591901117274    2.40947792821405    3.54872235736007
O         4.88763642393305    3.48948272818969    3.45678275323183
C         2.99309243613876   -1.10505147180461    2.89583940084459
C         3.24916549556495   -1.22015151936314    4.29537213681670
C         4.64573042110833   -0.96939187808908    4.51884887538009
C         5.23420741672764   -0.66418129109420    3.25394125022564
C         4.21408948442508   -0.74752824491485    2.24653189236437
C         1.72737715546039   -1.54356452370185    2.21872006460996
C         2.30674520114255   -1.85981303993050    5.27568566376707
C         5.40477950446462   -1.27027725455405    5.77692968319780
C         6.70578044931657   -0.54168010999204    2.98168941451152
C         4.46558681412722   -0.77406729968323    0.76777476961433
C         0.44469140225241    2.43310350674800    6.25614387741025
C         1.37174418870680    1.94107622325457    5.18117431084087
C         2.62649145950391    1.49358954207348    5.37507545145364
C         4.56691140588731    1.82641483643752    6.87036672083298
C         5.21300843468282    1.65135013076986    8.07781326146070
C         4.59825219808985    0.95158545997553    9.10469079320656
C         3.32534912387808    0.43940968356310    8.91559363631979
C         2.66894307131588    0.62469145283738    7.71318745812555
C         3.27903832327581    1.32061169257596    6.66401794105588
C        -0.28652387052222    2.41423530031114    3.31428697033876
C        -0.52666367252689    2.48715517821749    1.95257118123305
C         0.47748466627489    2.18550471942152    1.05140787589071
C         1.72634882827857    1.77885092696123    1.51111180997196
C         1.97338609355250    1.67507166306641    2.86410202786938
C         0.96399157929765    2.01986418477460    3.77920868135164
H         1.77580504768715   -2.61599610115893    2.01558367941499
H         0.86099606286317   -1.35282967562207    2.84906495928110
H         1.57717037139574   -1.02246899165593    1.27585211772905
H         2.28017727853753   -2.93828805231153    5.10270721592142
H         2.62921962639012   -1.68600287755697    6.29918427713025
H         1.29535818200915   -1.47197221117698    5.16204026695561
H         5.76129288575987   -2.30292218688214    5.74994898210031
H         6.26825773932417   -0.61667240389115    5.88518879430919
H         4.77997658232972   -1.14847688951147    6.65843955191695
H         7.12384210976275   -1.53298461510749    2.79025618932229
H         6.89761520074390    0.07947172296949    2.10826006672694
H         7.23191745513647   -0.11227045955804    3.83244082358952
H         4.86642885755560   -1.75009267492492    0.48332227508275
H         3.54589880288855   -0.61380431005594    0.20985259807358
H         5.18729511977290   -0.01484686248760    0.46998850031005
H         0.96322462269044    2.51902338929238    7.20701763842640
H         0.05508690834015    3.41246925776721    5.98206808452791
H        -0.40048597406173    1.75440936069623    6.37477325891019
H         5.05022771276426    2.37751410004945    6.07231562855987
H         6.20340055532847    2.05894165218779    8.22216439426271
H         5.10776465258645    0.80678205714671   10.04590707094940
H         2.83987920851637   -0.10750633340149    9.71189426087851
H         1.67743243171538    0.21935862346700    7.57339057671809
H        -1.07307322443801    2.66514363656361    4.01081241495193
H        -1.49897398689031    2.79309850459633    1.59352021812935
H         0.29564894740040    2.26518589579595   -0.01109821877709
H         2.50565277861378    1.55967787928168    0.79094274667218

