56
CSD_code = HEYXAM | q = 0 | S = 0 | Stoichiometry = C13H36O2P4Ru | MND = 6
Ru        8.77747979233402    2.59080596761160    6.27804721514500
H         7.27170938046649    2.25891510602146    6.24963298817189
P         8.07268180723405    4.37005143769092    5.01726071983071
P        11.03562178948207    2.95005001988527    5.90471611844187
P         8.57237076162146    3.57201164855821    8.30781091393601
P         8.80687967560016    0.41942580343625    7.03807542821290
O         9.73326828794072   -0.35483812957943    3.46724719124787
O         9.13169849318438    1.54390032815100    4.40996227630433
C         6.41161734306838    5.02341092526073    5.44671638885358
H         6.09756876604560    5.77493451935342    4.72187841144889
H         6.43268181919444    5.46165561823135    6.44324155550384
H         5.71031330736432    4.19077915303943    5.44670357784251
C         7.77489161471139    3.89120451782126    3.28213790246796
H         7.36466096459837    4.72785511956113    2.71482498286941
H         7.07509932205985    3.05584166550445    3.29022668697015
H         8.70409069175931    3.54343652247020    2.83500412468150
C         8.94721886140265    5.97802754063763    4.78161160224108
H         9.93780771015534    5.81089988547149    4.36403415714196
H         9.05131270792446    6.48186131412127    5.74115117057803
H         8.37378755308157    6.60916168397512    4.10291176936350
C        11.52579186679358    3.15853079393071    4.15219569938095
H        10.99801162971434    4.00144562556512    3.70996307555514
H        11.25047230858921    2.25511562089071    3.60952525757861
H        12.60284341572940    3.32029645840851    4.08711443693399
C        11.92453367076227    4.38780675781174    6.63741358737091
H        12.95411475908309    4.41493369227264    6.28063101716645
H        11.92483200897352    4.30361476880964    7.72296981017482
H        11.42064700278530    5.31057347284498    6.35559168163791
C        12.23557219143937    1.63149737919358    6.33313316224674
H        13.24912391871081    1.95129304181338    6.08739151283880
H        11.98509716423957    0.74949851262740    5.74364504690273
H        12.17379534217280    1.39236194556553    7.39392573685474
C         8.90156228676662    5.36358940952728    8.58030823429720
H         8.19006823893652    5.94443073395929    7.99490009511051
H         9.91010302647086    5.60658842090257    8.25380464512870
H         8.78891424394988    5.60867506410896    9.63645257896774
C         9.63633017304432    2.86707535450896    9.63202527928173
H         9.46505571440406    3.36878259843605   10.58435734273505
H        10.68125001333856    2.97074050941998    9.34158968479939
H         9.40512284534719    1.80604459026659    9.72467536579960
C         6.94058098006786    3.46533165955989    9.14232855345309
H         6.66953293005310    2.41660254120586    9.24121168811847
H         6.19844677929398    3.95417782957261    8.51319321429897
H         6.97063715838196    3.93895877959194   10.12377559778414
C         8.43449518015053   -0.47056565369789    5.49092862203732
H         8.69815685555983   -1.53087898816511    5.52584816174644
H         7.36157766600742   -0.35431076933292    5.29883156982911
C         9.17757580987255    0.28145878727572    4.34958887246988
C        10.15005949415719   -0.64774870281069    7.72303430207108
H        10.59146888949733   -0.19565728885486    8.61051107028262
H        10.92162758584638   -0.78897469825386    6.96944823429464
H         9.72894592602016   -1.61858514488545    7.98514135604181
C         7.43923929652956   -0.14942891666167    8.12748549326293
H         7.32762397259680   -1.23066745347988    8.03564272103540
H         6.52007024836683    0.34387838249835    7.81584516364834
H         7.65145875711594    0.10262423834569    9.16597694760949

