59
CSD_code = HEYXEQ | q = 0 | S = 0 | Stoichiometry = C14H36P4RuS4 | MND = 6
Ru        2.42679205196405    3.19140759843394    2.91931968373131
P         0.16519903825867    2.89169195995754    3.11391199939191
C        -0.35349094568476    1.26860169614563    3.78252648321324
H        -1.44051993207403    1.22181986452527    3.85294396797242
H         0.09369764224189    1.11794865910453    4.76338216139767
H         0.01501481595609    0.48951088883687    3.11641436387079
C        -0.79972707141413    2.87741225038707    1.55684860479118
H        -1.84748382437232    2.66781737466814    1.77228493759925
H        -0.39190064508815    2.09184620233877    0.92143685722846
H        -0.70978348842981    3.83737171118652    1.05048833232046
C        -0.89830266355234    3.98500180914263    4.13886428278751
H        -0.85627490932485    5.00604721067767    3.76586969206854
H        -0.54537127492250    3.96341311191413    5.16788914461339
H        -1.92690161476175    3.62667442942331    4.09856631379032
P         2.39667988870358    5.47899161273436    3.18090056251615
C         1.28887063578347    6.40779718604172    2.04553482176116
H         1.27597104183991    7.46254709948802    2.32030696246090
H         0.28223601738048    5.99774879021798    2.10231492972561
H         1.64780934969776    6.30478164186443    1.02334984544006
C         1.91766395796574    6.26658491086406    4.76908364844651
H         2.61247446130729    5.95738488999450    5.54750745631398
H         0.91279403600345    5.95765410624967    5.04701923933079
H         1.95275136511865    7.35116982794367    4.66244175300129
C         3.96157311830551    6.37615602959934    2.87264835888320
H         4.30842182880497    6.15680926517719    1.86305609781891
H         4.71961044356982    6.02984652220653    3.57455785242140
H         3.80426733782690    7.44924523930232    2.98574674677642
P         2.99104997548303    2.67786892858629    5.10454933161449
C         1.85080786020919    2.93900883351434    6.52059452665118
H         2.34699687371569    2.63156807035169    7.44151355598377
H         0.94790097896194    2.34726378725392    6.38229232834308
H         1.58087403918387    3.99103202433379    6.58652750871976
C         4.47540415489202    3.52616552328762    5.75384705863730
H         4.64749421424745    3.21901101696823    6.78618018580905
H         4.34217107412985    4.60603286690751    5.70547569793887
H         5.34451027423734    3.25816756944802    5.15223066075711
C         3.46468108775646    0.94118142299371    5.40317314889331
H         4.30912172503141    0.68948984501128    4.76103979966506
H         2.63163641317935    0.28684158738324    5.14591933811932
H         3.75093611566639    0.80815322045616    6.44726824540881
P         3.59438001275164    2.29047429040490    0.20016035882220
C         2.42663107783187    3.50486932079270    0.77663541584708
H         1.53378558286994    3.39248504290947    0.14763784954440
H         2.91320401135546    4.46155044328794    0.51707893999869
C         2.69517642161116    1.43645173107763   -1.16008394459540
H         1.82566813703897    0.92731507450794   -0.73957878984953
H         3.33326393522309    0.71087774965324   -1.66501317460062
H         2.35643405002894    2.18333404481933   -1.88008088977943
C         5.08462081771926    2.79808047211711   -0.73441002708638
H         4.77586737430692    3.08367852644644   -1.73994508992474
H         5.75548227111982    1.93807655760875   -0.78682010060595
H         5.59627915398066    3.62730947918232   -0.24867349117481
C         3.85730235750151    0.77679261281837    1.21110542842911
H         3.76211406499223   -0.09764018847308    0.55834965732621
S         2.42736625307328    0.81462263796872    2.29521096582404
S         5.47773289765387    0.48698316559363    1.99965420310532
C         5.80778183157549    2.03511949217441    2.74359495295682
S         4.81091325310552    3.35789798978272    2.30972374200791
S         7.12944104848659    2.15835497240234    3.70812750753742

