87
CSD_code = HEYYAN | q = 1 | S = 0 | Stoichiometry = C29H42BClN8O4PW(1+) | MND = 7
W         2.69207970014173    3.05718892799807    3.06398069583205
Cl        6.66551142045298   -0.11079208179783    1.17499504338495
P         4.45131538974433    4.78978326964012    3.58332184416549
O         5.05131712921176   -1.01780130052013    4.60577970784809
O         9.49056774788016   -1.25464817157496    6.22522680543523
O         8.04033339909603    2.43609743533932    3.44491663753494
O         3.43177059503115    2.90512081152845    0.21866949227604
N         2.02872450134094   -1.00676326977298    2.99567745850473
N         1.56437807887379    4.81668933696444    2.52040904653956
N         0.36262805368990    5.05642111276200    3.05807042178615
N         1.86260986499639    3.38058417003801    5.05009601705313
N         0.58815237919040    3.77203117868575    5.17366572250019
N         0.75293679241128    2.22910100638208    2.56673703495015
N        -0.36332083798459    2.73801284337694    3.10210613621333
N         3.19703991591798    2.90619185126994    1.38304255179778
C         5.19221291352815    0.67806995666212    1.83398089965843
H         4.92071560837383    1.41247145806133    1.07715207720874
C         4.10506641640420   -0.38625020066324    1.93473254935367
H         3.68538664112496   -0.53456471116298    0.93692848432142
H         4.57390584888968   -1.33097913167948    2.22754556001804
C         3.02779732097123   -0.11749021462068    2.93697875870111
C         3.12702680216731    0.94159474063181    3.85068096908890
C         4.29992684156280    1.79455715836112    3.92283513193048
C         5.54448525858212    1.40829397646073    3.13590436931983
H         6.04764786235898    2.32925075659725    2.82648730881853
C         6.56806381686556    0.68712792074127    3.99699853525113
C         6.31612117216181   -0.50444552683034    4.69057800958836
C         7.31726697344790   -1.11555430661307    5.42556522313989
H         7.15769221707022   -2.03332136970543    5.96346835319555
C         8.59303831166890   -0.56171627613197    5.48689128912403
C         8.85838773859927    0.62825468885381    4.82464597464783
H         9.83788504168493    1.06923384262258    4.87425101347660
C         7.85074408122662    1.24408649289833    4.09304510970189
C         4.78070932777293   -2.24052269823152    5.25004236357372
H         5.41722414413164   -3.04630067803943    4.87305720450298
H         3.74002378030968   -2.47072968053171    5.02321032209269
H         4.90155711285973   -2.16316660328390    6.33432648127485
C        10.81387061016558   -0.77852569887731    6.31925421267219
H        11.29174342868113   -0.72650225188331    5.33648234378225
H        11.34193691149699   -1.50217584874760    6.93726895849879
H        10.85390269868701    0.20347851594686    6.80069986137325
C         9.34172284084889    2.97240783074293    3.36197357729299
H         9.71817138383624    3.27283688182984    4.34470249556790
H         9.25266181278978    3.85403179212548    2.72883381274819
H        10.03719393532598    2.26783995708184    2.89940885556363
C         0.99823430945800   -0.91166678199614    4.00724757520191
H         1.38655734924477   -1.19237338342335    4.99055599450362
H         0.17708077659254   -1.57826391264018    3.75775086147074
H         0.60146621012059    0.10213326338348    4.06718658658837
C         1.97147474938778   -2.13634255085062    2.09439921801818
H         1.87329802786736   -1.81056264691089    1.05681390020710
H         1.11294059181749   -2.75608668070669    2.33679138473626
H         2.86940401952259   -2.75204265472272    2.17530324507740
C        -0.18376944621029    6.13681829280230    2.48395109012728
H        -1.15176053367759    6.49175321302242    2.77233589290171
C         0.69851498777796    6.61887335306410    1.53847263269193
H         0.57404169918784    7.46731975754674    0.89920712986102
C         1.78178964115863    5.74626557509283    1.59463984578410
H         2.67790286252647    5.74382589031135    1.00142874258572
C         0.28077148161241    3.94313210602911    6.46748672096370
H        -0.69614464731678    4.25701652079917    6.77163131187064
C         1.39934348539577    3.64971900769434    7.21872726736214
H         1.50290382528381    3.68206583311713    8.28280033879499
C         2.36616720386277    3.30246537102515    6.27892879659255
H         3.38099681258468    2.99883201089852    6.45545659835173
C        -1.43747914711743    2.16428708878543    2.54058874481670
H        -2.43074373325861    2.43774465000667    2.83130753717662
C        -1.00065817945946    1.24885327136067    1.60474906975183
H        -1.59677259510870    0.62290826273327    0.97483878323053
C         0.38835160807462    1.33753958175708    1.65106984948097
H         1.12091465393381    0.81810633246122    1.06268019906762
C         3.79274924353606    6.42970833300888    4.09433478792727
H         4.61652251929817    7.09166204626148    4.35924595115720
H         3.14709955055414    6.30328974177279    4.96341774984278
H         3.21590897303218    6.88400683159886    3.29213844467472
C         5.72001935664473    4.58183225554904    4.89200373334427
H         6.34196196604768    3.71527327206343    4.68522041054410
H         5.24587369613343    4.46678460980375    5.86420107158302
H         6.34788840135745    5.47231016216520    4.91108457747040
C         5.52921049002966    5.23368219304211    2.17236840828553
H         4.93934896687021    5.35940739043092    1.26772886129076
H         6.23998084466842    4.42644372072821    2.00516681902269
H         6.07100456493937    6.15424831500627    2.38724263613916
B        -0.31361521042461    4.01367973124466    3.96502860780516
H        -1.39293352727323    4.35307880753968    4.29471674090339
H         2.56602875899509    0.82542319799256    4.77761421670029
H         4.58909240874600    2.00644072823016    4.95481294478520

