65
CSD_code = HEYZOB | q = 0 | S = 0 | Stoichiometry = C18H34B10P2Pt | MND = 8
Pt        1.71884378526332    8.91433660083973    8.13818404307427
P         2.81607081371330    7.40477046809174    6.80696253717047
P         0.96709207694345    7.19311818537626    9.76498717404328
C         0.61758763610419   10.46405669003254    9.14173907076818
H        -0.28898526452301   10.15028864516663    9.66751039613747
B         1.85359608602640   10.67052637274678   10.06920577700022
H         1.77004903242374   10.33573849782373   11.20832742646899
B         0.37975345858824   10.85190071935888    7.62201565492250
H        -0.70860908714876   10.63737369804237    7.19853687822972
B         0.77534737358297   12.20952661467280    8.84736532049434
H        -0.14373214415175   12.78388341501778    9.31575641188010
C         3.32175903742265   11.00637322921764    9.51204313094905
H         4.09738553113782   10.74344473719445   10.22824265147945
B         1.94035062185096   10.63044871995987    6.75835569962551
H         1.96916679467232   10.18167543621929    5.65942877438494
B         1.23020931514548   12.24308335828312    7.04208171629617
H         0.67843679859557   12.82503818075193    6.17482333054362
B         2.44192721367039   12.43317102907317    9.75238191744793
H         2.56186238389670   13.00870618180266   10.77427712002972
B         3.51233618548548   10.63570267086505    7.94011132735933
H         4.43559959162589    9.94055313300699    7.66697748501562
B         2.17596058388786   13.13305717473603    8.20183649942496
H         2.11800765588579   14.30965130049904    8.12019682496149
B         3.71917107066555   12.32910964856636    8.55690916037439
H         4.78558404487023   12.80369750886715    8.71718834675283
B         3.00222855865944   12.01814681439999    6.98200579055277
H         3.58222779766412   12.39079457892336    6.02203598055164
C         4.03683395914850    6.25529608402760    7.57611406181734
H         4.46378098329357    5.57176969853271    6.84537777332532
H         3.56953910311282    5.69006340698566    8.37995076381148
H         4.83933394776961    6.85496483499918    8.00138747538481
C         3.76399859286820    7.87487110856986    5.30313180934038
H         4.14570534322266    6.98551277262237    4.80369356579019
H         4.58771687927283    8.52534299389093    5.58585040273783
H         3.11333250177815    8.41971502280194    4.62529142420043
C         1.58020092647852    6.28690155833697    6.05420625076225
C         1.85693748388404    5.01537836685453    5.56812686789425
H         2.85495038060293    4.60758243013449    5.63656550692283
C         0.85256347673918    4.25554375055030    4.99388296557766
H         1.07454564015171    3.26561935734318    4.62199708471584
C        -0.43322903187895    4.76001251058385    4.89226197509004
H        -1.21237156917868    4.16341611370026    4.44135962893707
C        -0.71542200122613    6.03064749095319    5.36717821122149
H        -1.71590266233354    6.42898298633592    5.28510557267393
C         0.28601383567622    6.78668965085768    5.94736526369669
H         0.08127176398462    7.78254260470644    6.32832898811956
C         0.29009768532736    5.56313446443338    9.21504325589191
H         1.01374039444368    5.05505135607227    8.58115450689971
H        -0.60509080106192    5.74668025480312    8.62354982226478
H         0.03353303350487    4.92578786957075   10.05856259715283
C        -0.28303208644876    7.59647162312040   11.05790323234172
H        -1.24118811290698    7.79061822403498   10.57885550118887
H         0.03233341775017    8.49129193377778   11.58964580875120
H        -0.39204643421559    6.77733203572620   11.76701120977199
C         2.36178035459601    6.67703721958293   10.83392669316029
C         2.29247231278450    5.63607520515549   11.75220785441445
H         1.38371019138331    5.06197643721775   11.86429944535515
C         3.38911435323797    5.32442459023281   12.53572436168829
H         3.32786667817825    4.51203624564052   13.24561993614156
C         4.56262853314064    6.05103410281176   12.41602506277415
H         5.41489230638341    5.80380628648467   13.03158925852127
C         4.63859000422512    7.09226154962000   11.50611292090283
H         5.55100513180697    7.66247286399441   11.41096229209653
C         3.54362220055124    7.39959762245100   10.71965714332207
H         3.59034433189020    8.20758376298313    9.99918705940679

