79
CSD_code = HEZBIZ | q = 0 | S = 0 | Stoichiometry = C29H36BN8O3PW | MND = 7
W        21.54255912856966    9.47351456517994   10.93217416833073
P        20.64757598434416    9.77762656377201    8.63511530354484
O        18.26094700997353   11.43461159284981   16.08392449197621
O        15.94403575076666   12.27459959678821   12.28082837272519
O        22.22076320486418   12.33319957439170   11.01524879308128
N        17.06041704826580   12.13526809442543   14.26997204160976
N        21.37995464165458    7.30568129439132   10.59312022868878
N        22.46995703560636    6.54228968840073   10.69447506405107
N        23.45598618647360    9.28112047878701    9.92709734093580
N        24.21214428679563    8.19105129952158   10.06410573910344
N        22.87877802405635    8.90509553307043   12.54923531290700
N        23.69735984670358    7.85702457680140   12.41963846493114
N        21.85589987628899   11.20465186513601   11.07858822729317
C        19.34579897343078    9.48215696784005   11.42005655225812
C        20.10006328411804    9.24794478360104   12.61315304531900
C        19.81709298170011   10.29062128563919   13.68344817282736
H        20.37903674600268   10.11438353015235   14.60065366200492
C        18.29036579777334   10.16742004745409   13.99517169230136
H        18.08890799762206    9.19265027013483   14.44354135275327
C        17.49270273054190   10.43705732429076   12.72443514563813
H        16.81276640796337    9.62657872685448   12.45380407692026
C        18.47153728756742   10.71570076320627   11.54099714003959
H        17.88504627068252   10.91816552363038   10.64559718406365
C        19.26726080632488   11.90951237117474   11.97724042248240
C        19.20494716240608   13.16749069977856   11.38905875379170
C        19.90637661839131   14.19569779551864   12.00403778120635
H        19.89265105036100   15.18353255766262   11.56605023132514
C        20.59380549842080   13.98722589977752   13.18354670529364
H        21.10205216426266   14.81850834734726   13.65109683771336
C        20.63095658371558   12.74136133562771   13.79880259903232
C        19.98491035870314   11.68904845508723   13.15548057801601
C        18.36439673918511   13.43567753369044   10.17627540126980
H        18.58779933084657   12.73257436589396    9.37607022438090
H        18.53753797230739   14.44478165183380    9.81075109161061
H        17.30868798394275   13.33734655028981   10.43193188619382
C        21.30317523450586   12.59614338483780   15.13245771532979
H        20.67315547454866   12.04033475657489   15.82457445846874
H        21.49480820795853   13.57817754699190   15.55870818875250
H        22.26024001270702   12.08352537208687   15.04345623396331
C        17.90476156696629   11.27918335106434   14.94313901171970
C        16.71928393769544   11.70534539822621   13.00819200036789
C        16.58653185400228   13.37505340622392   14.83445972564692
H        16.53067932887640   13.26517184124367   15.91623946459613
H        15.60591999288208   13.59607232446352   14.41617036432702
H        17.27686505466788   14.18385527026265   14.58726177862572
C        20.39039698998093    6.51680522552478   10.19155362143510
H        19.39615283538305    6.88876473355484   10.03270252581819
C        20.84697541642425    5.20973635760468   10.03294507591522
H        20.28550711871900    4.35234209161644    9.72389875803232
C        22.18267573006550    5.27435086783665   10.36565762100308
H        22.93231121541415    4.51013596402136   10.38819336408918
C        25.35821109001735    8.34122183772515    9.38273544841564
H        26.10357482075532    7.57222411772228    9.37160729571975
C        25.34027105119715    9.58119265183815    8.77967976695587
H        26.09661575916414   10.02109042370028    8.16310819766680
C        24.11977879885279   10.13749271410594    9.16191861670001
H        23.72155883677396   11.11094548420589    8.94528009138444
C        24.46708265282138    7.74264128024030   13.51438716587185
H        25.19116459585747    6.95848737937179   13.60420996066038
C        24.13320270709614    8.75850039117733   14.38273152697993
H        24.55121042612749    8.96122642297656   15.34693301007751
C        23.12922121849311    9.46513029774197   13.72066807645047
H        22.59405186441009   10.33999181206367   14.02780071505591
C        18.89935488222641    9.49601758101291    8.13092748305588
H        18.24929633223412   10.19758699141085    8.64628858605432
H        18.59514823197432    8.48367110439907    8.38650822975185
H        18.79941074097116    9.63468327649578    7.05457067595311
C        20.92408338498132   11.43638427400898    7.89969895690456
H        20.28940427025834   11.58918529912865    7.02744528201383
H        21.96658226887909   11.53141377150481    7.60513379494419
H        20.71203291451776   12.19332465570956    8.65208945872525
C        21.45396486750892    8.71340647670198    7.36258413947845
H        21.22697399894538    7.66852846805619    7.57131462853589
H        22.53317966111133    8.84985448221487    7.39532068168401
H        21.09147542339089    8.96607913002424    6.36654830704202
B        23.83238825277935    7.11086600549368   11.08993715731209
H        18.78500551826743    8.64309968460941   11.00114688448756
H        24.65059584553564    6.25865275842494   11.14441408187000
H        20.10754084332617    8.23053182597493   13.02437778623618

