77
CSD_code = HEZCOE | q = 0 | S = 0 | Stoichiometry = C26H40N2O7PdS | MND = 4
Pd        2.15585886391458   10.62535277162694   20.28401962173635
S         2.91672264063287   11.89951281910516   15.82100534462672
N         0.57072459968048   11.90094802630528   19.81973469674441
N         3.65036820804522    9.26955549631121   20.63126837803131
O         0.58077495179284    9.16759761625006   19.93304824023990
O        -1.45670693704769    9.21538521648390   19.04369144802699
O        -1.07886003961300   13.08842627144799   22.88795902651954
O        -0.46042029713667   15.21711862040620   23.51288644960844
O         1.33402181972922   14.45985078264334   24.66607728194251
O         0.02856834510594   11.08833208929542   24.80540229606775
O         0.90639506475865   10.55770644062074   22.76469108045640
C        -0.36073618017262    9.68774878601514   19.27940507621343
C        -0.02416937262249   11.13427402283815   18.70584296180474
C         0.95800573654796   10.94096983637320   17.54555091089890
C         1.61863633837909   12.22615783830237   17.06053743164570
C         4.10165586775261   11.01369883523168   16.88358570165187
C        -0.43577848669412   12.09066028246254   20.86324296659873
C         0.08023158782990   12.79742220630220   22.11863222269705
C         1.08982261248159   11.94571595379614   22.93034591458660
C         0.90528262628577   12.12350066606651   24.44721690066156
C         0.34170808904680   13.48192556723061   24.85631330895348
C        -0.83455595885029   13.93772273418500   23.95542515816785
C         0.70459150185147   15.64241804698751   24.20548959105011
C         0.31019076048820   16.54711965367951   25.37868028946200
C         1.64423769005422   16.36129091638036   23.24222678102610
C         0.06684415606076   10.06804650012548   23.80765682261707
C        -1.35637584163975    9.79064495062746   23.32057650423673
C         0.69927848549361    8.79880835095774   24.38496897066512
C         3.47400156121450    8.91183315953962   22.03813137015662
C         3.47783605686888    8.07576230717914   19.80500989276987
C         4.97895904700901    9.87627379702388   20.42761491970962
C         4.89501089448340   11.35963308441153   20.68068393955041
C         3.62920267407836   11.95147105653603   20.54719006550302
C         3.55738933068362   13.33372645944540   20.70338859149352
C         4.68316121790188   14.09383804749043   20.98700919662554
C         5.91612560621474   13.48472370676827   21.12975916824005
C         6.02127938648135   12.11372098078775   20.97221294912993
H         0.84030758586966   12.82819790636806   19.47979456972593
H        -0.94651299517734   11.61789662191610   18.35189535155780
H         0.41634781161926   10.47659612986420   16.71826336831592
H         1.74299337542859   10.23528510616176   17.87624475039604
H         0.90318983418306   12.88510506380937   16.56895344628051
H         2.12170966659522   12.76248455800815   17.87113723088558
H         5.10038791262994   11.30526339125779   16.57443283251548
H         3.93011385740031   11.30656725997030   17.92222002329112
H         3.97573343764073    9.94172045357240   16.75099729338236
H        -0.82596927991822   11.11315990472981   21.14978321909738
H        -1.27817106311545   12.68684996305721   20.48355630033407
H         0.56602479505882   13.74737592477505   21.84877068803479
H         2.11332579163057   12.18465232467361   22.61136273903353
H         1.87405218822974   11.99995439655165   24.95884211857327
H         0.02898622318894   13.43063781218969   25.90801459358956
H        -1.78717350138389   13.98026310439809   24.49839339863385
H        -0.37887561207205   16.02422313345040   26.03695493391442
H         1.19920236087988   16.82134730842175   25.93837587334134
H        -0.17548267552916   17.43994962270454   24.99748101357099
H         1.98313982888070   15.66928011795393   22.47648491759740
H         1.11617516377741   17.18772919028243   22.77771557307798
H         2.50628846780302   16.73015297904518   23.78796267088210
H        -1.86585068167886   10.72936491345930   23.11792620000402
H        -1.31738880805224    9.18499245350520   22.41836688372691
H        -1.90480587254023    9.25563027767449   24.08977759058279
H         1.73305779894813    8.98872207077435   24.66227787385990
H         0.14459937835879    8.49927555988734   25.26866567545117
H         0.65652562909532    8.00530538514255   23.64560797399162
H         4.17369774394692    8.11457023673129   22.32768615821089
H         3.65426885192009    9.78968175231840   22.66324367437780
H         2.44892486170550    8.56872295113693   22.18858545367054
H         4.20526483933332    7.30003520415784   20.07912998309913
H         2.46726236163821    7.68593168278842   19.94220008945780
H         3.61283105378455    8.32814797756358   18.75083963736865
H         5.28506298942177    9.71633345335328   19.38631110820870
H         5.72786312011160    9.39102611140996   21.06979981655924
H         2.60788939397210   13.85001149196748   20.59927285001505
H         4.59355235907492   15.16527167362037   21.09789109197822
H         6.79173124512173   14.07369264567744   21.35808518856524
H         6.98233795510416   11.62779798843858   21.07201437473811

