66
CSD_code = HEZCEW | q = 1 | S = 0 | Stoichiometry = C31H28ClN4OOs(1+) | MND = 9
Os       11.26812258975657   10.55535961877433   15.12940311399847
Cl       13.29518066613754   10.48854878672461   14.14121922968467
O         6.87000330217290    4.35556471193177   10.56788423732226
N         7.47503578613133    4.64521585999247   15.14892140472669
H         7.81792206920697    4.90872605050369   16.05704020779434
N         8.34982104176013    5.86351749485464   11.36619823218457
H         8.53580523028659    6.10436167107787   10.39893803829994
N        11.11566869437708    8.63990424441971   15.29508359946120
N        12.11346369298606   10.28566539770064   16.87752922540619
C         4.77716776125745    1.80406329408172   13.92575455268445
H         4.07559716142630    1.06694490314086   13.56724099694122
C         4.99192242106492    1.91718608956333   15.30316900900739
H         4.45272583887216    1.26529552186679   15.97324122192011
C         5.87593052479529    2.83920447716456   15.82430913431325
H         6.03943243160995    2.92214774177616   16.88817486126209
C         6.54923295021592    3.65386702559463   14.92481463284247
C         7.87102032398440    5.16808093341179   13.95451002140573
C         8.82026108895564    6.20541137429480   13.70346502432039
C         9.03439877408412    6.52188773863362   12.33513423289808
C         9.95832337500022    7.52145338516915   12.00223100976670
H        10.14018825216812    7.74219845545394   10.96155121414198
C        10.63699884086761    8.20445404388553   12.98009068329652
H        11.38055628428128    8.94589741798866   12.72295413993429
C        10.42646560431435    7.89984419303688   14.33514169061848
C         9.52688031368615    6.89734785162379   14.68375346511175
H         9.35951571975774    6.67342732491453   15.72700763292833
C         7.40018519355264    4.84353990086076   11.53848262400962
C         7.19102376427904    4.51932236007744   12.92567275544729
C         6.33972228329788    3.54645815503697   13.52972853867413
C         5.44023336541824    2.60849698615571   13.02647498337703
H         5.28407501404010    2.53015984201100   11.96287676951203
C        11.64750593694333    8.07385296612574   16.35753793319833
H        11.64305434682466    7.00418446390440   16.50777416178210
C        12.24408269319601    8.98314620142553   17.27673296629781
C        12.89683099844954    8.65120824013613   18.46865468972572
H        12.98545877672654    7.61388427574961   18.74712112940931
C        13.42516550031647    9.65557086375694   19.24976693338763
H        13.94187649450063    9.42606360386891   20.16737734187920
C        13.29158420991549   10.97843441360948   18.82751072128700
H        13.70289904712429   11.78795138892353   19.40700050433276
C        12.63777524371052   11.24493312575327   17.64218338896750
H        12.53940823326991   12.25995759576453   17.27974464738410
C        10.81842381906051   12.64033674436297   13.41661378095925
C         9.94532852312491   11.60204431544148   13.04763504163624
H         9.95126216733869   11.24515763399766   12.02675930502324
C         9.00638524804235   11.08599083194117   13.94557331726553
H         8.30702295966453   10.34150799933163   13.59369325279880
C         8.90326118657613   11.58781634698140   15.25593255097889
C         9.80171511691298   12.60687290752436   15.63337091066339
H         9.69858344854983   13.06259479600327   16.61064798456593
C        10.73727443924337   13.12665981712400   14.73232710378213
H        11.35494357702369   13.96525949335666   15.02575691401482
C        11.77886359091232   13.22385937121182   12.43556518412227
H        12.72081503196209   12.67197238334722   12.47506567623611
H        11.99126232443253   14.26446737581207   12.66769652585910
H        11.39256329690569   13.15218145566538   11.42182100203385
C         7.87108366768513   11.10800329340938   16.25255415949989
H         7.44637605564625   11.99546994380453   16.73592401551176
C         6.73040361064970   10.31547785742134   15.61943668795582
H         5.97307816247683   10.11009208834507   16.37134616015406
H         7.08099070768686    9.36208484630156   15.22827973254950
H         6.26116980119337   10.87977049890408   14.81739980124354
C         8.56113559244218   10.26218176212097   17.33203874067384
H         9.32689748379423   10.83290864998722   17.85517298897467
H         9.02378494640817    9.38293128245263   16.87923795855604
H         7.83195340155479    9.92561831440499   18.06445030400039

