58
CSD_code = HEZDEV | q = 0 | S = 0 | Stoichiometry = C17H29Cl2NO7PdS | MND = 4
Pd        5.10874099128009    1.58872119862334   21.38755465940356
Cl        4.29637587034128    2.40662475998453   23.29988380533361
Cl        4.89107594422086    3.54823646813812   20.33306302624471
S         5.44006902961504   -0.37860340511641   22.60892050057244
N         5.96838584024909    0.84983671539223   19.54710283384725
C         7.06679170757972    0.16145617555606   23.22073463583026
C         5.92127866533996   -1.79951436265164   21.54905965090219
C         6.55565399912826   -1.49667309392563   20.19288986255003
C         5.73945034578046   -0.56740784374403   19.26898888458194
C         4.24643795918443   -0.82604696426630   19.44595285060433
O         3.47687122270835   -0.04505560208163   19.93977945426048
O         3.87856052988304   -2.02212828011252   18.99397026850974
C         7.29828338093191    1.37627306240684   19.25642942612811
C         7.73387879689500    1.11076846134347   17.80686424814933
C         8.86994458360657    2.06265206799969   17.36941923291603
C         8.86093858498876    2.26326269044774   15.83992779583222
C         8.12518952681207    1.16517863881197   15.07042974400968
C         6.76434124273729    0.78499337750367   15.70155731225369
O         6.58682420393444    1.27925656337782   16.98281272064893
O         8.21717307255311    3.49342810654775   15.65021157149194
O         8.73459501713939    3.36163222606015   17.86990820172986
C         8.12315728973075    4.19564860896267   16.89292298023780
C         8.92087168807623    5.49745109434593   16.81727761090357
C         6.65471514620651    4.46077100556644   17.22059170316946
O         8.86552999475970   -0.03176662469141   15.11517013492909
O         6.76923626041270   -0.62374472482750   15.71777117729527
C         7.94129413477116   -1.10125924043761   15.06315960511945
C         8.50834189579964   -2.29301419750749   15.82856471494164
C         7.60851036641246   -1.48305422983359   13.61696822866531
H         5.32391351005872    1.39773198121912   18.96447179698828
H         7.53205991882171   -0.64910904007207   23.77673078065461
H         7.70518857465392    0.49013660025738   22.40078188616193
H         6.85699812889761    1.00066619604874   23.88389823020712
H         4.99424542140807   -2.35821248454230   21.41999484492256
H         6.60335100961676   -2.40857328623973   22.14350432400178
H         6.68986522420335   -2.45254804149585   19.68154241927592
H         7.54454087451663   -1.06067353613382   20.34090028295939
H         5.97797977009784   -0.81225016024791   18.22270155303190
H         2.92205146638714   -2.15112540870780   19.10786998952753
H         8.05262238323159    0.96037137343098   19.93088840854470
H         7.25000619259565    2.46059639055670   19.41206793727412
H         8.10139165669189    0.08027746952982   17.69265969782260
H         9.82468995688512    1.66423846986661   17.72831751600609
H         9.89089344608474    2.30775144516655   15.45328250779196
H         7.98433573356192    1.50747253853518   14.03637825143625
H         5.90804374544039    1.15757165409076   15.12785833390837
H         9.96643736470910    5.27776528429137   16.61778191352237
H         8.52539472337367    6.11683182710740   16.01904969256978
H         8.83933870026065    6.01930363530555   17.76498523935540
H         6.08559986231193    3.53866593390848   17.15343229505457
H         6.56512211956841    4.85028823960977   18.23016601027091
H         6.25031853890005    5.17807869017036   16.51394230306438
H         8.77771553513796   -1.99368023469725   16.83791592865641
H         7.76066513911845   -3.07841481227886   15.87253525996667
H         9.39613244505427   -2.65431412674536   15.32059239438506
H         7.17752544638661   -0.63360097071788   13.09382339554500
H         8.51651598773284   -1.79170975514815   13.10797718546350
H         6.89053983312783   -2.29725852394472   13.61536278061777

