26
CSD_code = HEZFUN | q = 0 | S = 0 | Stoichiometry = C11H11FeNO2 | MND = 7
Fe        3.93961105439409    2.16930983362796   10.31991860061212
O         5.91911160346843    3.19515972654830    8.42558515444530
O         1.50619391741407    3.73796877178690    9.89849422504150
N         3.00167905993424    0.33332471182102    8.18314658220347
C         3.62582092760888    1.66930596653345   13.14346812134384
C         3.52853963287466    0.82727166645193   11.86532119745446
C         4.87354902618703    0.66028269844617   11.42021963614288
C         5.73583668589126    1.40708341030818   12.44527034447569
C         5.35016842100342    2.84955390864782   12.13879475917369
C         4.06423373014289    3.00943724646518   12.56437642041636
C         4.94804246759788    1.16602118044032   13.74171961958922
C         3.37261977718388    1.05732332280628    9.02544517984693
C         2.55054840554687   -0.49020896238769    7.15203263710675
C         5.17945620132025    2.80041834566766    9.21445619693173
C         2.46145408655290    3.13472941011449   10.11889656424534
H         2.74933768124379    1.68403998633554   13.78581858569134
H         2.77354661903717    0.05534029549898   11.79389175089144
H         5.24844225835344   -0.25176671895253   10.97461295827479
H         6.79878354680926    1.18077223089802   12.44580786519833
H         6.04511722556739    3.61695730674442   11.83358671785767
H         3.51396871646880    3.93177080559625   12.67183816162386
H         5.30028477269326    1.77103959410114   14.57901906202865
H         4.91296349248762    0.11592873509878   14.03019185242560
H         2.99667529622235   -1.48158097962066    7.25420495267678
H         2.83824139844391   -0.06304630065610    6.18913074990530
H         1.46277399555183   -0.57683619232225    7.19835210439683

