58
CSD_code = HEZFEX | q = 0 | S = 0 | Stoichiometry = C22H27CoN6O2 | MND = 6
Co        3.47838027409399   -4.04528160330224    0.67866409406613
N         4.37629347992617   -2.68865149944231    1.69221625795790
C         4.77052766929721   -1.40027775367615    1.12892938029234
C         5.74131985114231   -0.79294178210528    2.14769041144526
C         5.27584891320079   -1.43054889978617    3.45586482264015
C         4.61990564105160   -2.69818784091085    2.97280741645041
C         4.32676220853859   -3.76154206662882    3.83847643514476
C         3.71577908977914   -4.94567881127366    3.39812482186379
C         3.41096281197744   -6.06644862344244    4.35840266930708
C         3.17844963293651   -7.24561950484526    3.41812096247398
C         2.78160602823533   -6.55547674042940    2.10728709569491
N         3.36098934224677   -5.21477201748654    2.17068129419709
N         5.12444034740270   -4.86453935068208    0.20620943157905
C         6.40696103161599   -4.50670981021565    0.80802829693596
C         7.47897362059832   -5.20897343216445   -0.03530647454108
C         6.70833333012771   -6.35976035638087   -0.67596867014672
C         5.28081592339386   -5.88479453661965   -0.59249253675810
C         4.26271736076439   -6.53917630522165   -1.30465294375927
C         2.91222813086294   -6.17775473622436   -1.19338842578779
C         1.82733740670598   -6.87876398345334   -1.96908591872008
C         0.57395499810189   -6.47285281805451   -1.19602558675982
C         1.00359350314450   -5.14762477139475   -0.55772785670977
N         2.45210748419354   -5.24532865730861   -0.40642805126704
O         3.24040588380249   -2.77163338936290   -0.76234832748245
C         2.19940704357062   -2.38396184993673   -0.17718402882644
O         1.89347211476824   -2.94741535404527    0.90209079936897
C         4.66355492184956   -3.63667742071116    5.19326213807484
N         4.95247090044487   -3.53704556971127    6.30261804685453
C         4.60675317616214   -7.60544492685619   -2.14685881760140
N         4.88533295556801   -8.48772781450251   -2.83093469574057
C         1.34630442240308   -1.28214025764504   -0.75145725209050
H         5.20326636031508   -1.52913178959176    0.13557691079071
H         3.88031086044830   -0.76582552859787    1.03058432140874
H         5.69703451518463    0.29359988481438    2.15993257214919
H         6.76563113946044   -1.09566246743536    1.92406421376865
H         4.52972752447398   -0.81380008893287    3.96340643471917
H         6.08074330003124   -1.63048522011435    4.16177799374150
H         2.50968379480026   -5.81255030484125    4.92225832458853
H         4.21770712377814   -6.22439989533168    5.07281890045237
H         4.10406970681188   -7.80558158997221    3.28029833293243
H         2.41028148418073   -7.92976586747372    3.77082715169646
H         1.69305922004214   -6.47029557275676    2.02327501575095
H         3.15547312122841   -7.09294096168668    1.23587051667773
H         6.54377249018800   -3.42720682938213    0.81051582929349
H         6.41991471618761   -4.85622406848074    1.84720325669528
H         8.32037217257660   -5.54229138733874    0.56771239407557
H         7.85048254184374   -4.53237866559645   -0.80525316902444
H         6.80669381561717   -7.28631526274742   -0.10417763108762
H         7.00717294633223   -6.57038986123994   -1.70184862711490
H         1.81454445352937   -6.49171874228833   -2.99134813071695
H         1.98793650032123   -7.95473138828674   -2.01994138834103
H        -0.30387450646103   -6.36003946724774   -1.82790893896132
H         0.35462371985453   -7.21029247910194   -0.42250246695860
H         0.52955328619935   -4.95611804177707    0.40580566148665
H         0.76470520614497   -4.30887463007286   -1.22401851653941
H         0.48579385378017   -1.11073112347351   -0.11167656133949
H         1.02077807748447   -1.55936103662174   -1.75162124216139
H         1.93615307773928   -0.37193513060524   -0.83524594613801

