89
CSD_code = HEZGUO | q = 1 | S = 0 | Stoichiometry = C49H37P2Ru(1+) | MND = 9
Ru       -0.91551393282533    0.06067023213939    4.14742069455671
P        -1.19649570872869    2.17222246360208    4.93306436610614
P        -0.34658235152555    0.90233304403316    2.06738754643822
C         0.21343279188653    3.29106688025614    4.68060365655493
C         1.44716871352173    2.77468653683563    5.07851213383530
C         2.59458373117961    3.53407577960305    4.95996288513121
C         2.51902053691495    4.81797724650400    4.44007737959029
C         1.29939174007143    5.32798937136286    4.02883346917059
C         0.14579051876086    4.56873297504282    4.13874697538942
C        -1.62100319276746    2.41508725076869    6.68137226976876
C        -0.88375684373557    3.21733546149884    7.54522884186253
C        -1.28231891956952    3.34577918297831    8.86507619981148
C        -2.40720968999826    2.68124377004793    9.32472313614356
C        -3.14287311975914    1.87947351245967    8.46421583900895
C        -2.74979209558962    1.74325584939984    7.14763167482353
C        -0.52478026734822    2.52580233160718    1.27010711363924
C        -1.65086017890213    2.86788709600554    0.52939722933934
C        -1.71333356755792    4.10574229296321   -0.08398386529088
C        -0.65039372755582    4.98883246384732    0.01857160508359
C         0.48802637041317    4.63164125751319    0.72424010271768
C         0.55305606820571    3.40283611081904    1.35354860108522
C         0.70839657818332    0.01554133244051    0.89214712805296
C         0.40722477098229    0.03460867141463   -0.46829797705248
C         1.21419056091836   -0.65476647671900   -1.35328075182282
C         2.32406356214604   -1.34735717799697   -0.89107447543374
C         2.63395371497313   -1.35014991161459    0.45909569376496
C         1.82744201868550   -0.66811378966492    1.35300566688487
C        -1.93920103182223    0.05398007468550    2.10997630330657
C        -2.12833105418303   -1.22709855612304    1.51805081541560
C        -3.20259084310430   -1.99067123063761    1.84083997217109
C        -4.12870277278705   -1.57099045491878    2.83962324603764
C        -3.99179729589907   -0.28877119277461    3.42630017110982
C        -2.88234885951342    0.57700642488796    3.05750127039324
C        -4.96184063159814    0.13266923329682    4.34985404634221
C        -5.99556484038008   -0.69439379530788    4.71613689320594
C        -6.11263813175867   -1.96847301044138    4.15790207408618
C        -5.19829842393773   -2.39386537237973    3.22731105775831
C        -3.20839822186071    2.03906009332462    3.13404054179383
C        -2.59996653721063    2.88085120291918    4.04239378298862
C        -3.07300855501184    4.18901375984919    4.26969839061588
C        -4.10201807179080    4.67341100933976    3.51871568066815
C        -4.69756605078023    3.88097313553186    2.51228250463532
C        -5.73552196164998    4.38982213533856    1.70494237762517
C        -6.32711556707264    3.61272969387081    0.74882181574158
C        -5.90377973284813    2.28925640706620    0.55994455733264
C        -4.90381064396690    1.76283141668475    1.32979392648313
C        -4.27089729993803    2.53753200672275    2.32698721017797
C         0.76080148018874   -1.14822888691446    5.03175150077009
C        -0.09346310961850   -0.70415386012280    6.07742012846970
C        -1.38247534894942   -1.27930095531391    5.87379083992969
C        -1.30981807848031   -2.07838366107430    4.70744915186118
C         0.00240266739313   -1.99592372000620    4.18025184101358
H         1.48750369996272    1.76922784495715    5.48355674249759
H         3.54633323139740    3.13121138512805    5.27262249009673
H         3.41265754747807    5.41650111307168    4.35121883023679
H         1.24194518378267    6.32402454878734    3.61638862824072
H        -0.79402077298883    4.96932380891527    3.79081223458016
H        -0.00625670256337    3.73820828960408    7.18933627281502
H        -0.71073312264527    3.96891257565178    9.53630159064404
H        -2.71147106543055    2.78643018154345   10.35469658142106
H        -4.01948383867943    1.36147129345754    8.82366465828334
H        -3.30870687942228    1.11600335213243    6.46424804428475
H        -2.46668659215882    2.16695376190857    0.42718647856131
H        -2.59215802069726    4.37619793974710   -0.64985613939957
H        -0.70420843152284    5.95267939797672   -0.46394003307034
H         1.32447151544117    5.31096937631819    0.78450273746780
H         1.43572479391828    3.10895347294974    1.90643429509543
H        -0.45518062077080    0.58481271613342   -0.82008272995268
H         0.98013806626046   -0.65149635506716   -2.40706209326721
H         2.95125151002476   -1.88176532270611   -1.58787218011067
H         3.50447574951404   -1.88101268013610    0.81395682989225
H         2.06009115732983   -0.65207006976811    2.40928484636956
H        -1.41343652946272   -1.56095211531284    0.77686099179883
H        -3.36775430668326   -2.94049635731635    1.35387800329992
H        -4.88595046294424    1.12180952946125    4.77813477830506
H        -6.72472529747987   -0.35652596715423    5.43657610655729
H        -6.92784615414534   -2.61085115393677    4.45260879186330
H        -5.28666494099930   -3.37294018895227    2.77959498613567
H        -2.63418427363582    4.77502339593348    5.06499210010836
H        -4.48342193453063    5.66958824388363    3.68685640110156
H        -6.05253068914236    5.41078882155326    1.85720704033672
H        -7.12035766382123    4.01017779578272    0.13464470068217
H        -6.37321971013898    1.68479001798036   -0.20126636614219
H        -4.58588120753281    0.74393183908888    1.16603845575018
H         1.82942691960611   -0.98677490181575    4.98383817665066
H         0.21270314573931   -0.15119322336875    6.95855779723347
H        -2.19820312445299   -1.26167384818824    6.58201801692960
H        -2.09285566588704   -2.73047856555732    4.34462650444051
H         0.39353632288476   -2.59537560733597    3.36982219116595

