119
CSD_code = HEZHEZ | q = 0 | S = 0 | Stoichiometry = C46H70P2Zr | MND = 12
Zr        9.23384357447384    0.68569406043172    6.45115253841314
P         8.46754162542997    2.84086373821314    7.73117006996011
P        11.66547343304027    1.65823008422846    6.34497474037226
C         8.93583108116456    1.75275710808365    4.19622729184458
C         7.63799593015275    1.63886075091822    4.73569277130924
C         7.32432982897214    0.26346639955639    4.83301580828584
C         8.42359606826493   -0.46830704080234    4.33967476948949
C         9.42203085758510    0.44820941024236    3.95309278261821
C         9.57084021569271   -0.29318085000657    8.73936104426943
C         8.23734119614167   -0.59033686911825    8.37744620585658
C         8.27039247317246   -1.50407063586530    7.30498307848640
C         9.62001135463323   -1.76467417599922    6.99237696767319
C        10.42526815982901   -1.02179413530528    7.88644943248985
C         7.83030068888646    2.50209635632962    9.41842884721294
C         6.53494532361149    2.00442153758726    9.72735577565971
C         6.34652396883106    1.35224499377964   10.93406275360757
C         7.35547215600343    1.18966443367903   11.87261200880437
C         8.52051859465807    1.90147961837480   11.65622525344185
C         8.76281412607010    2.60724366747613   10.48439955146209
C        12.27078791019515    1.93663655369924    4.63462480611800
C        12.76613630591852    0.93506168466693    3.75892402566073
C        12.74018944811652    1.16953780461169    2.39105142726276
C        12.28107656739591    2.35385118160348    1.84174338418043
C        12.04481306217620    3.39532266394215    2.72494580347237
C        12.08866586806989    3.24258372529657    4.10151351775379
C         5.31160983008964    2.20408579985012    8.82684499317631
C         5.16940802280702    3.70705816230319    8.52579057280765
C         5.41770453471933    1.34103717818453    7.55851771637327
C         3.98333878904574    1.80989042912303    9.49624353908369
C        13.39388061358901   -0.37773803011931    4.23984943164090
C        14.52178834103318   -0.04063565501562    5.23199263204146
C        12.32689689243760   -1.31330977341167    4.83269507730772
C        14.08178651826455   -1.18028509625151    3.12147367825704
C         7.12015205990636    0.31739735814200   13.09389428609442
C         8.35911351631760    0.20986795719611   13.98707906705033
C         5.97435434160287    0.90516851279865   13.92916317762353
C         6.75018257014466   -1.09671459906600   12.62310554235890
C        12.09911573454969    2.56986383062601    0.34908831850234
C        13.07557113821997    3.65187413903173   -0.13251365754836
C        12.35127525681223    1.29868474992123   -0.46662106958759
C        10.65389830757205    3.02056108578290    0.09210923599837
C         9.99207737946604    3.52769441469771   10.46261433057007
C        10.53137328558365    3.80570836510519   11.87749997569097
C         9.60353722087282    4.90146729217559    9.89687848166196
C        11.14651504275457    2.91796125621077    9.66299412726760
C        12.02943264716604    4.51847894010554    4.95391695547258
C        12.30781438434973    5.78307136837284    4.12146958144930
C        10.65453448841791    4.70972853809783    5.59926847176675
C        13.13268050513562    4.48137882544135    6.02143365566091
H         9.42278809008058    2.66928662212084    3.89129840403840
H         6.94938110231451    2.46097783479456    4.88844792910866
H         6.35470077076489   -0.14701754280241    5.08836481297844
H         8.44540433998235   -1.53766019427253    4.16701728224644
H        10.32692597441097    0.21602706047418    3.40884564402661
H         9.87137771011072    0.28302974075356    9.60413665467781
H         7.36268950383531   -0.29864837633396    8.94199526480025
H         7.41337438728336   -2.01500107537337    6.88290220173269
H         9.97453381813071   -2.52004593615200    6.30132358025475
H        11.49732096381433   -1.11863509730754    8.00829751469818
H         5.38534737995130    0.92268104094410   11.15173193154182
H         9.27026690228776    1.89949679489832   12.42386531924982
H        13.06345646372285    0.39154484954532    1.72647520726969
H        11.81134300709353    4.36011786524070    2.31229259748450
H         6.10522814926544    4.17129502846023    8.23266040051501
H         4.82734748435878    4.21786500624816    9.42391954553126
H         4.43485236243898    3.87161661925455    7.73922521886476
H         6.43707602187455    1.31992468754926    7.16625650719898
H         4.74512104376298    1.71291925653707    6.78682686688760
H         5.12965131839231    0.31593842470575    7.79192829526234
H         3.83463422755148    2.34282203787038   10.43243879023690
H         3.91448740598749    0.73956654089708    9.67947500354396
H         3.16884477403738    2.07848514392438    8.82530262772400
H        14.22636610667668    0.68908883224769    5.97850582819480
H        15.36020895318014    0.38547081663811    4.68427971064780
H        14.86719647784239   -0.94028661956063    5.73858647928381
H        11.58727519410239   -0.76515575583893    5.42093378836678
H        12.79191211768811   -2.07205862533915    5.46061837684279
H        11.79984761314422   -1.82072805765827    4.02456879051194
H        14.83944772748993   -0.58872894890607    2.61310955773177
H        13.37295461433725   -1.55894470608456    2.38809839296075
H        14.57559153246419   -2.04000224551843    3.57187964925265
H         9.20660493035638   -0.18352347338178   13.43016717164777
H         8.15393206855714   -0.46817620593989   14.81332364349799
H         8.62563649727286    1.17674538098480   14.40769868731055
H         5.04643270093079    0.93315362934860   13.36433217390011
H         6.21665088150475    1.92049858294923   14.23645064049550
H         5.81182435065974    0.30323089509036   14.82102165784048
H         5.83643682773231   -1.09211617328114   12.03504345572166
H         6.59922871085214   -1.75152977292699   13.47896173013513
H         7.54886798458591   -1.50782734060710   12.00866211029305
H        14.10076787769073    3.35237687816808    0.07594114363196
H        12.89091721362215    4.60015864137985    0.36469772224850
H        12.97061113830639    3.80315977146349   -1.20502609582591
H        11.69288211975569    0.49405256282987   -0.14664087474829
H        13.38492542058079    0.97216179564530   -0.37750190202643
H        12.15436052805924    1.49713707563631   -1.51844180920170
H         9.95599983562596    2.26797746204747    0.45402125868628
H        10.48748827920082    3.16414267903931   -0.97360296831491
H        10.43534236671965    3.95649462284668    0.59870114580451
H        11.01763126740143    2.93526598241889   12.31188559306285
H         9.73997030836691    4.14479618342274   12.54206280496259
H        11.28010997848135    4.59301792440981   11.81624096174457
H         9.26207564714461    4.83066081284215    8.86764120368748
H        10.46193568105132    5.56880125150288    9.92320026658872
H         8.80612598048757    5.33480865721105   10.49722732305127
H        10.84915904353175    2.69976111550518    8.63751762907782
H        11.48547044170111    1.99311293943610   10.12801673769399
H        11.98505047185668    3.61034723754266    9.63353973102532
H        11.48679986709797    6.02292188647776    3.44953989691327
H        13.22605147283991    5.68349621475573    3.54704425693486
H        12.42363349694310    6.62717588125854    4.79840820634868
H        10.38206195033387    3.85401451516444    6.21649283577150
H         9.88965141054527    4.84085868609394    4.83487357789532
H        10.65971069587646    5.59590441002694    6.23020832083609
H        12.99675202874105    3.65277740056330    6.71129844039543
H        13.12323392037557    5.40486822855497    6.59584137422602
H        14.10452062166857    4.37787646066244    5.54300878840194
H         7.28668475014609    3.21187351310367    7.09620983476431
H        12.47272645570936    0.58814555084640    6.71693237542464

