48
CSD_code = HEZKIG | q = 0 | S = 0 | Stoichiometry = C17H24CrO5Si | MND = 9
Cr       -2.38372240088478    3.33626214208854    9.21692136332429
Si        0.40591722385118    5.74097270635843    8.55957169877825
O        -1.19746648199770    1.81934256415706   11.48362946273175
O        -2.79818612901674    5.22517598684456   11.47738406710570
O        -4.80835747794968    2.13692174224066   10.45140219766346
O        -3.90967576311647    1.35035648270553    5.33799655437020
O        -5.14475865181640    2.11255903480120    7.17506567459714
C        -1.62056932750813    2.39423460984372   10.57221944285238
C        -2.63364974184261    4.52478977076156   10.56998628772219
C        -3.88719952992454    2.60029728581033    9.93164384298416
C        -2.86567218161499    2.63700559017145    7.13690365861950
C        -3.18388885884027    4.01012424683475    7.20162577196902
C        -2.21910265338900    4.92307361227628    7.61716857769849
C        -0.90447627522856    4.51494009421099    7.93905082328959
C        -0.60275213426050    3.15203511119623    7.82504864280858
C        -1.56161390202225    2.21455178754321    7.40448243181512
C        -3.91818511795902    1.63246219065920    6.71870069355683
C        -4.17343995713709    2.45658180649885    4.48739503399797
C        -4.37972698907324    1.92974396427225    3.07744470230602
C        -6.18216875227504    1.14579303046687    7.23341244047547
C        -7.38424907793940    1.78609692916166    7.90440926783892
C         1.28679998953659    4.91188026093844   10.03065368256419
C         1.61250034640154    6.08422819110018    7.11605456337950
C        -0.45511241377612    7.34394058424388    9.12013587248401
H        -4.17535977754883    4.33650415748208    6.91685767018321
H        -2.45972712931363    5.97987669486329    7.62567100005252
H         0.41334622181950    2.81637931573896    7.99943424948974
H        -1.28859860444477    1.17579358673424    7.25582242211765
H        -3.69490240533281    0.64964322812141    7.17360598801623
H        -5.07059336941181    2.98417351404285    4.83604689381824
H        -3.32457056376701    3.15683943137873    4.51137353706140
H        -4.57261481740071    2.75620370355745    2.39901988173822
H        -5.22203176562264    1.24387978629446    3.05535972537411
H        -3.49226814357713    1.39561946602717    2.74952470799965
H        -6.42897629491807    0.80278955477144    6.21921779178246
H        -5.83368980522502    0.28111324076890    7.81569416685862
H        -8.19216253328463    1.06411589581764    7.97926349853359
H        -7.72309492831874    2.64376419630943    7.32953093438236
H        -7.10571076796998    2.12067653068491    8.89965234606195
H         1.93300959677836    4.09921916258323    9.71286178772960
H         0.56395007289916    4.50349432618475   10.73298682536808
H         1.90620712576177    5.62347531417069   10.56693193548545
H         2.07825078657283    5.17202559814703    6.75464847398277
H         2.40624871363609    6.75131227479393    7.43625333040469
H         1.11185477871037    6.55292379590094    6.27354900030404
H        -0.91132161698028    7.87963706964145    8.29284154961376
H         0.26015171729378    8.01692238251202    9.58178865642425
H        -1.22814023257020    7.13574804829421    9.85405687228861

