74
CSD_code = HEZMIL | q = 0 | S = 0 | Stoichiometry = C36H33N3ORu | MND = 7
Ru        5.44884614273453    6.53239630138009    5.16032202237762
O         5.55496983038172    8.21638288413830    7.34443556345075
N         6.48485530063489    5.01213975633362    4.43066862472614
N         6.07467254877527    7.34527287127571    3.49841633760177
N         6.23343162154404    7.73724563102791    6.42128454118903
C         3.48288445908730    6.87654595872407    4.17573441430478
H         2.74035379544313    6.13684254118708    4.48202305725961
C         7.15384580179342    3.72021087015021    6.39149275725794
C         3.74579341840800    7.88934593570267    5.15288326502626
H         3.14463864070158    7.84083827967452    6.06304659752391
C         6.85291938796831    6.54264799471838    2.76125859363280
H         7.19292080488360    6.84910586166764    1.77800833350628
C         4.28420607523044    4.97188467654396    6.25223357348546
H         3.31410259901629    5.36313635821694    6.56585720928147
C         5.47654834083607    8.46886830684136    2.80789980093241
H         6.20416841934771    8.89393435130752    2.09886373588459
C         6.54862691823489    4.55046285263498    7.34541482473436
C         4.26908145673287    7.96652029080070    2.04517376805047
C         6.62204597549725    3.68557958105862    4.97816039473411
H         7.30637811779698    3.08860519410520    4.35303806753643
C         5.27184694491996    3.00375157927302    5.01918974748914
C         7.11794310272017    5.30128554179948    3.29155619418584
H         7.76470624547450    4.57578667311355    2.80618741408117
C         4.16093040503705    9.24750781543099    4.82504885505248
C         4.97421944979829    9.55648572208375    3.72264052977027
C         5.35704980164528    5.34997376832265    7.08103904332911
H         5.08760857284349    6.00158874905083    7.91539116000925
C         4.17689072295841    3.67942589793048    5.57367815643429
C         4.06876456042543    8.26559749841523    0.71024526107534
H         4.76516693667906    8.91459347682881    0.19774206805946
C         7.11098300070421    4.60073738188298    8.62639220516444
H         6.65789969144734    5.24286903368963    9.36871033165680
C         3.37891559324674    7.13918801847912    2.73816537886039
C         8.25313346661851    2.95002782834115    6.73760610193043
H         8.70639233878089    2.30948083572833    5.99392589822568
C         3.75862404564031   10.29710841029484    5.65894860925641
H         3.15980916221603   10.06798562398444    6.52798720831455
C         2.92486304559038    3.06015092736980    5.51575666501318
H         2.06710330435625    3.57081668314328    5.93143604480919
C         5.10993525432671    1.74044947844015    4.47599902534918
H         5.96561054649259    1.22835944244721    4.05845014242057
C         2.31494902061927    6.58290163564789    2.02418041729267
H         1.62366391729978    5.92641199728291    2.53403583059563
C         5.30180756137401   10.87677807769335    3.45201950347008
H         5.91511304804069   11.10434772846211    2.59037611032329
C         4.11278127169097   11.60324258528774    5.39458741980060
H         3.79012827655388   12.39396140700751    6.05602584937021
C         8.78567229704425    3.00343443577495    8.01311891621597
H         9.64850649072759    2.40542263110000    8.26446149432461
C         7.65218864174596    8.18439059902878    6.44374792882598
C         8.21338059776175    3.84074831235978    8.95760564251554
H         8.62756599524558    3.89738777910002    9.95340096502693
C         2.76770695407526    1.80811118597950    4.95652772317831
H         1.78912643809232    1.35225756891031    4.92330849045490
C         4.87671524693288   11.90169141800154    4.27753591788410
H         5.15136685043728   12.92254007382052    4.05818925579697
C         2.12739855494473    6.86728641992997    0.68570533908923
H         1.29804109142940    6.42356786411181    0.15459587974642
C         3.86498672735630    1.13696387753339    4.44366269864077
H         3.75058210688774    0.15661406881793    4.00629002955350
C         2.99600212993420    7.72017748770483    0.02562796861805
H         2.85150414723019    7.94485799588668   -1.02045669836856
C         8.12651618042321    8.24060170547267    7.90156646050440
H         7.45302142797236    8.85833991741186    8.49002270605010
H         9.12704667021963    8.66129578373142    7.94847890594346
H         8.14514860665659    7.23855532458568    8.32608907337647
C         7.67973783634937    9.58840719414527    5.82796647894049
H         7.36865655599086    9.54890474996508    4.78694118758962
H         8.68510775709431    9.99813113036994    5.88076773694439
H         6.99849832721489   10.24391301212815    6.36659898263309
C         8.55412145317774    7.23492554600359    5.66216502082621
H         8.45315371264069    6.21552621337043    6.03453209340102
H         9.59021281996528    7.54102783287182    5.79302661264413
H         8.33010543989427    7.25463955696540    4.59878653580193

