31
CSD_code = HEZNIL | q = -1 | S = 0 | Stoichiometry = C10H10AuN2O2S6(1-) | MND = 4
Au        0.00023847538679    0.00062122755405   -0.00060542679183
S         0.19281717628951    1.51876315291417    1.77372874767648
S         2.25790987061184   -0.55297465247600    0.13299321082211
S         2.71477829895609    2.12325050169994    3.42555748410927
O         5.29774809364701    1.45885160608935    3.57976271637472
N         4.01642705154349    0.46987242303276    1.95673532557502
C         1.87768669251505    1.28719833628855    2.12895150698225
C         2.71849005465182    0.46905211313818    1.46995657804183
C         4.24977101430205    1.29606756209891    3.00303494163278
C         5.08480459922661   -0.30195352136993    1.35875277571610
H         4.66967796534204   -1.26804857595291    1.06125957367405
H         5.84591397573305   -0.44109504854608    2.13073075293485
C         5.67357119608820    0.41380778118184    0.14899256714446
H         4.90015390212040    0.57203053699222   -0.59833299189422
H         6.46424309411130   -0.19026725580871   -0.28775516295509
H         6.08495948129517    1.37571219650585    0.44675741228833
S        -0.19296408493432   -1.51903849107026   -1.77320219954826
S        -2.25798985426593    0.55280041044937   -0.13274136671904
S        -2.71467619865976   -2.12324147949900   -3.42546128122761
O        -5.29762496615866   -1.45882334969668   -3.57985036102554
N        -4.01641697162771   -0.46980727587690   -1.95676241031749
C        -1.87770816838125   -1.28720105475445   -2.12878394839130
C        -2.71852648752716   -0.46899904497560   -1.46987882559651
C        -4.24968041696204   -1.29600850432531   -3.00307762383734
C        -5.08487041234687    0.30193485968472   -1.35880739999057
H        -4.66981494325487    1.26806448839279   -1.06131964837648
H        -5.84598483426272    0.44101240105368   -2.13079873588307
C        -5.67358045738178   -0.41387354107765   -0.14903828432446
H        -4.90014536646737   -0.57204150953909    0.59828564695954
H        -6.46429768219924    0.19014343782430    0.28771192037778
H        -6.08491009739151   -1.37580972993213   -0.44679549343043

