76
CSD_code = HEZTUE | q = 0 | S = 0 | Stoichiometry = C32H38Cl2N2ORu | MND = 5
Ru       15.97927639268273    3.98130362306727   11.64124857251536
Cl       14.89254553134294    2.86247662217489   13.33161578466417
Cl       16.26292422282626    5.48344659355088    9.93470845690053
O        15.70339031936407    5.79483984100423   12.92972996256288
C        17.84762228001733    5.08599701357906   13.47086936903984
C        17.68475275476061    4.09539466685191   12.46987141839465
H        18.56000612518164    3.47104424811135   12.29125101449781
C        13.82955727244748    2.64534586141038    9.85139396652072
C        13.09903827933926    0.95634794784611   11.59120166103072
H        12.61435942864097    0.11386117744818   11.09318516757405
H        12.66067596697327    1.06661024467583   12.57920067385738
H        14.15537611369739    0.73485123631096   11.71502661518581
C        18.50001815910668    1.59822088328974   10.66653100641873
N        15.09420412863862    1.99796927430974    9.77309315591067
N        17.17384287080733    1.56733343261011   10.16599344624064
C        15.32907251795791    0.83959625661412    8.92417997197047
H        15.13892597339375    1.09013819986037    7.87567815391060
H        14.66448378675651    0.01721265849675    9.20789305352369
C        11.39658053489959    3.97777376530135   10.07602431348232
C        18.80716067540932    0.88424913943714   11.82537414534824
C        16.80281716009889    0.53320639649410    9.20209350501107
H        16.95422804848066   -0.45979917671779    9.63626961974997
H        17.42669774150348    0.60963822782277    8.30659356930516
C        16.17160922377994    2.38637202213046   10.46814224489154
C        19.47016424578806    2.33398410866408    9.98610573993749
C        13.52381204443903    3.67653030743039    8.95373892495454
C        12.31086421438922    4.33577103788277    9.09488163928065
H        12.07659992788057    5.14654530960081    8.41984193923589
C        19.01767134267885    5.22228803365375   14.23567343885054
H        19.84403993539231    4.55613895042145   14.03445183415210
C        14.52376638253323    6.54695338334687   13.07946958532375
H        14.75680818109084    7.61832491290069   13.03547269347283
C        12.88263197931032    2.19869246359665   10.78130873361383
C        16.86391290397060    6.92138566907835   14.74724710120424
H        16.03708835870390    7.57952308995078   14.96521330592801
C        16.77067600361998    5.97420517846764   13.74296252476269
C        21.11595364264883    1.56994433616189   11.58850114164392
C        18.03414196917511    7.01691074347326   15.48645917082555
H        18.10415414473122    7.75569835557536   16.27049716128973
C        20.77318000593548    2.30228761000094   10.46057503805016
H        21.53508591916786    2.86914464817179    9.94497109551415
C        19.08891889320767    3.18207247114630    8.81385282496149
H        18.72611609903138    2.57628046019180    7.98448196712810
H        19.93896105242407    3.76337598743954    8.46844944136997
H        18.29171651003322    3.86745167514834    9.10711307715424
C        19.10635354730448    6.17440486182391   15.22813085952309
H        20.01028790874356    6.26342981392291   15.81195744219124
C        12.44317753270012    5.96652985457115   13.23195430160633
H        11.91447124678225    5.01811817951879   13.28169445999720
H        11.72503201499784    6.78378194560328   13.26356027016820
C        11.68335718381743    2.89019199518178   10.88743094531386
H        10.95829145742468    2.56407356299922   11.61956100353673
C        20.12145362276139    0.87831086575261   12.26712532907270
H        20.37391125796022    0.33171243509495   13.16453931009096
C        14.42760816361852    4.01814010030479    7.80834787798994
H        15.45507621099066    3.72417995757113    8.00336149671664
H        14.41560607158446    5.08844345176212    7.62103089141493
H        14.07494923764627    3.50962149431788    6.90848995026263
C        17.72114871913444    0.20414340686992   12.59919111793814
H        16.94644470306435    0.93152411694863   12.84926304037070
H        18.11268280082520   -0.21900544654699   13.51985459579734
H        17.26038434021750   -0.59556528748137   12.02069579891845
C        22.52694273961464    1.56357620169810   12.09415864096726
H        23.23091870282079    1.73111558131296   11.28262221462632
H        22.76146181592611    0.61809990599514   12.57772482446656
H        22.66276669952942    2.35897520791343   12.82766086345176
C        10.12185433573480    4.74755212635834   10.24017914987179
H        10.31623240062081    5.67080900466723   10.78658829983162
H         9.38685828370441    4.17155331994355   10.79682310343819
H         9.70378430259435    5.01385671735659    9.27160306130317
C        13.59280553648135    6.13711186258606   14.23831973286435
H        13.44805953435085    6.87466051306737   15.02491036542256
H        13.90673365971704    5.19110952626738   14.67758800219123
C        13.44970652157952    6.09873405312109   12.08058689197025
H        13.70917258543808    5.12605876560042   11.64003424249679
H        13.21233759805736    6.79411301794934   11.27897468901332

