82
CSD_code = HEZVAM | q = 0 | S = 0 | Stoichiometry = C34H42Cl2N2ORu | MND = 5
Ru        6.43138672346289    5.76394410313022    5.43055537287148
Cl        4.76142484782789    4.99856061941735    6.81820533412257
Cl        8.47620605504038    6.54721803274331    4.72833809925959
O         7.52331778622676    3.87792545319056    5.94247919501867
N         5.07971047709362    8.02600238948047    3.87087578547359
N         5.68906467506915    8.49038509464438    5.89400064286491
C         5.59766535490476    7.51266880760185    4.98213369201164
C         4.76509194555603    9.44801794094654    3.98706824236842
C         5.18198531893028    9.77177605000407    5.42343335701571
C         4.75173844663061    7.34345508890860    2.67169652053582
C         3.53989117887085    6.65153253249775    2.59875874443500
C         3.20294873386632    6.03223995886023    1.40633344575792
C         4.04452391015516    6.08140529489435    0.30159129103912
C         5.25233295144563    6.75243217879054    0.41120208042058
C         5.62643873665337    7.38843286352180    1.58753013346487
C         6.95436807560748    8.06734601268042    1.70662154657424
C         2.66535922151829    6.53496521257082    3.80810608249252
C         3.65472104659336    5.39040459806685   -0.97005955956551
C         6.03519027747056    8.28275230976997    7.26031484687950
C         7.33147601729834    8.56908170723383    7.70405410260922
C         7.64208559734970    8.33207746451102    9.03686576754503
C         6.69757425758016    7.85277932297335    9.93120972269675
C         5.39893091584595    7.65362548140092    9.48313795728469
C         5.04158355363217    7.87920577744765    8.16243722169035
C         3.60318689206200    7.76742400835630    7.75523123505817
H         3.12239152053633    6.95576624072653    8.29368186160705
H         3.49983480005729    7.57358460669252    6.69150289070285
H         3.08433808006203    8.69684921106773    7.99987910332103
C         8.34740965662508    9.18599200213735    6.79343063267003
C         7.04672624123070    7.59342939818306   11.36559121796075
C         6.02969337988127    4.69198002156821    3.91412876181101
C         6.61311985456424    3.40122253212492    3.86309351103307
C         7.40840357308724    2.95934507041168    4.95828607978800
C         8.00140613259291    1.70765015260866    4.93857379523264
C         7.81760146199318    0.87986774232949    3.84119819999251
C         7.04358122537284    1.28866077865352    2.76403520652540
C         6.44890017694465    2.53120682514626    2.77257972276881
C         8.11785476238615    3.58739360004729    7.20178738291231
C         7.19832814394112    2.69948915708249    8.04449088281533
C         7.76019297817806    2.53203997026160    9.45192687849910
C         7.92750505594544    3.89340369420140   10.11917138128451
C         8.86457413869495    4.77075842001079    9.29585950812384
C         8.32530580524202    4.94110728040380    7.88205987730368
H         5.33065213233559   10.02251393601297    3.24862225345205
H         3.69852269612538    9.61417109044340    3.80382130179674
H         5.96730440461470   10.53185626494884    5.47006428259498
H         4.34388162263009   10.10236440468683    6.04571292506842
H         2.27010689822567    5.49111675735847    1.33654210779074
H         5.92569099669539    6.77612347753798   -0.43366504186973
H         6.84352520042262    9.15133847368441    1.72596154416861
H         7.59168375515991    7.80726822356131    0.86617614901436
H         7.44694919838524    7.75773444225429    2.62812851067988
H         2.36569162347774    7.51483907342445    4.17724440569785
H         1.77066356040382    5.96171413675634    3.58261811235346
H         3.21568683997662    6.02570876321625    4.60209852014384
H         2.64353237550296    5.66845873127703   -1.26186490274083
H         3.67450445513887    4.30960203557458   -0.83127082274343
H         4.33605271401908    5.64543797812137   -1.77744804690395
H         8.64563489808148    8.53987410927915    9.38148279768545
H         4.64230423396978    7.32143299983098   10.17930684414018
H         8.36848233936989    8.68628153287955    5.82678904057263
H         8.11072284925689   10.23847298130222    6.63251585208614
H         9.33920459909734    9.12600740959103    7.23351190241959
H         8.09579331846562    7.80460676949847   11.55791481434817
H         6.44152169297058    8.21976394973854   12.01999312476239
H         6.84701227064379    6.55459753431602   11.62432336883577
H         5.41274247906311    4.95541473745471    3.05449155255147
H         8.61145928318853    1.36699876640226    5.76091575320578
H         8.28545698284162   -0.09310604176082    3.83161879621245
H         6.90999730879480    0.63033861327357    1.91890457381099
H         5.84773018211239    2.86172220793324    1.93807513764494
H         9.09263233360380    3.10171250382423    7.04206531051264
H         7.07346537919602    1.72580750798683    7.56528813151389
H         6.21533264785722    3.17590033838940    8.09157525643689
H         7.08568464312644    1.90619381680444   10.03882988920436
H         8.72926530180397    2.02731547502676    9.40391110006295
H         8.32278888916991    3.76930842814562   11.12953323868315
H         6.95120556769698    4.37778349959150   10.19102881875899
H         8.96910328892075    5.75147743647394    9.76159055202391
H         9.85506446173500    4.30956301824106    9.25417030347471
H         7.35380018081659    5.45736102172080    7.92823352295999
H         9.01437641110025    5.54601858788750    7.28449126529638

