85
CSD_code = HEZVEQ | q = 0 | S = 0 | Stoichiometry = C35H44Cl2N2ORu | MND = 5
Ru        6.90859886969065   12.81512606967466    6.47902917377895
Cl        7.56866134663305   13.91544317591909    8.38912215614852
Cl        5.58031119876059   12.20313548183125    4.71337326283782
O         7.01381650457773   14.81584003935189    5.46118254398664
N         7.49026606078088    9.93016116445178    7.34263528958788
N         5.63960114779300   10.78296514770977    8.05763611166799
C         6.74592008380240   11.03200187955313    7.34530327353815
C         6.89139415065521    8.82696286698834    8.09112278221382
C         5.58428493521172    9.43432781962875    8.60332805517979
C         8.76141134463189    9.73356005372935    6.74597306545919
C         9.90922780937247   10.05631604841922    7.47181166245219
C        11.14508059495736    9.79704253859134    6.90013386190437
C        11.25383482326919    9.23902283229669    5.63297381041990
C        10.09577532789759    8.96147550395564    4.92112295219491
C         8.83971609631973    9.20480306333694    5.45797503959642
C         7.59453922406124    8.96657904897884    4.66316966803868
C         9.79215630974784   10.72642435784584    8.80504603947628
C        12.60346216779425    8.98426958698725    5.03268742088469
H        12.54181063320060    8.25039434350438    4.23316286965071
H        13.30081878470415    8.62793482764223    5.78762597137936
H        13.00601231893075    9.90782798424534    4.61569746836993
C         4.61410027606796   11.73101127456441    8.33082462557257
C         3.48088962611334   11.78115486699441    7.51087528033529
C         2.49141611126381   12.71027734515587    7.80457543445993
C         2.58700577411749   13.55435936080532    8.90024322259328
C         3.69024124436575   13.43982236270896    9.73416993687210
C         4.70281588180380   12.52557356556328    9.48134009546496
C         5.80416272599316   12.34764954040660   10.48231213449160
C         3.26604277331901   10.80298114966175    6.39637505549478
C         1.48574592048734   14.51717522007993    9.22736126130802
H         0.81048972690484   14.06873669208784    9.95711739729296
H         0.90528807218327   14.76601631623708    8.34205197122943
H         1.88529086899270   15.43098476196851    9.66061865192999
C         8.59445283214592   12.69348335456321    5.61378116338688
C         8.97936883963289   13.78033589871519    4.78966623719831
C         8.13665841419328   14.92501234068873    4.71596662948584
C         8.48417530194872   16.00355693174422    3.91834751691835
C         9.65954840693395   15.96266990461542    3.18341488853985
C        10.49592760498112   14.85669792099484    3.24092380724932
C        10.16275317604512   13.78013269572032    4.03301280584310
C         6.14567735306325   15.92128493492063    5.69939879432373
C         6.81826366299677   16.91031209664787    6.65834095074128
C         6.05861140808264   18.23171763475630    6.75586335212170
C         5.00420937062967   18.26583801920636    7.86493744807039
C         4.20816131427239   16.96988177169744    8.04093555444665
C         3.81021372538942   16.28478295532969    6.73260449938364
C         4.85867059736338   15.29433379704973    6.23849032699674
H         7.55922513359894    8.51189643180513    8.89885845831153
H         6.72813032233652    7.96861456289261    7.43280643763926
H         4.69893725237539    8.90941156198547    8.23114806953288
H         5.53082378800166    9.46786676857679    9.69637032500084
H        12.04281882313727   10.04310612403704    7.44901667629900
H        10.17109253285601    8.55492477792399    3.92271774753217
H         6.99133472624715    9.87559309196600    4.64990934208388
H         6.99360319508076    8.16755999630995    5.09591241657681
H         7.83891577632479    8.69492953714668    3.64026947807348
H        10.77391184636293   10.97024427981560    9.20050458536741
H         9.27679698018729   10.09304231708789    9.52581353082194
H         9.21984235567747   11.64941777079612    8.69554597487082
H         1.61889061801356   12.75817634057984    7.16818221174704
H         3.75901631574749   14.06400025253461   10.61376430142350
H         6.67331547390070   11.86467033069728   10.04524184235476
H         6.11849011146574   13.31101929869325   10.87455942840485
H         5.44027964926599   11.74179255829921   11.31473475112286
H         2.81365655573013   11.29595326532440    5.53978889434815
H         4.19811862022768   10.35238929557680    6.06819452141497
H         2.58785136300565   10.01624447776382    6.73297261495631
H         9.30777725291845   11.87016077166221    5.65225443973818
H         7.85266762375815   16.87614096560742    3.85257164020873
H         9.92065412350412   16.80603844680368    2.56193726609304
H        11.40795206526314   14.84277874637182    2.66335060000183
H        10.80452565485567   12.91260986818897    4.08462378197331
H         5.92937537502275   16.41838906284651    4.74084660843163
H         6.92477035341189   16.44735931353771    7.64035598898892
H         7.82770642225312   17.09898315006351    6.28243915762598
H         5.58688481070499   18.43923658537044    5.79178727254782
H         6.76801216557052   19.04106653453429    6.94083957095006
H         5.49291719178081   18.49230746425824    8.81504692705032
H         4.31497860565992   19.08682048117922    7.65168572030804
H         4.78140753922009   16.26138310542633    8.64158442908887
H         3.30691868548243   17.21247622312062    8.60879095095338
H         3.60302399187084   17.02949554422441    5.96165572640455
H         2.89063902496355   15.72071528009247    6.89822556143016
H         4.42692764458198   14.67994609233362    5.44134625724093
H         5.12512928754171   14.62454277704662    7.07318497257711

