48
CSD_code = HEZVUF | q = 0 | S = 0 | Stoichiometry = C17H24O4RuSi2 | MND = 8
Ru        2.14480158346937    0.15776606151163   14.29667265401189
C         1.11896789165574   -1.44334843160684   14.42604405698846
O         0.52583784672150   -2.41527534887147   14.50508252673155
C         3.35662748326826   -0.05892353184864   15.70893691264375
O         4.03345177731189   -0.13398586721037   16.63104491389265
C         3.34161841988573   -0.27536677244043   12.92200003723421
O         4.00791839532041   -0.49396849079744   12.01523361588698
O        -1.31551487343797    0.71421414473618   14.26944285567351
C        -0.15561635539435    1.09174975837522   14.23541760320482
C         0.70242292989274    1.27516529469263   13.02968271191176
C         1.75548753915584    2.15386479078094   13.42921372311530
C         2.61792605933641    3.22401024641708   12.82590358981490
H         1.96863072390116    4.04452616700783   12.50254315204171
H         3.21405968200374    2.90532368649632   11.97195390906990
C         3.48789628941265    3.65812507279515   14.02347879181885
H         4.37381502229993    3.01890735672170   14.06859637866633
H         3.81399306731052    4.69344589669867   13.94288074717772
C         2.62841384392607    3.41178878600136   15.28049574829835
H         3.23194446882003    3.22638195098516   16.16792974773463
H         1.98134120654471    4.27236783171261   15.48075146580257
C         1.76152668079120    2.26294230075566   14.85433745757451
C         0.71280948303401    1.45565118053004   15.39181506207573
Si       -0.05185100217337    1.49876923168400   17.11981550168107
C        -1.49955316115033    2.73746848638778   17.05129126305197
H        -1.16467072554554    3.74785818041362   16.83246403499133
H        -2.03266321195269    2.76349209208495   17.99635154634191
H        -2.20321818535301    2.44534331512734   16.27812634217966
C        -0.64088385387783   -0.26362750495986   17.53504578160841
H        -1.32290691299827   -0.61834935187165   16.76780258690698
H        -1.16373032303027   -0.29673742344002   18.48588032196498
H         0.19119897499924   -0.96258287726484   17.58911252093122
C         1.26542728635334    2.07561661403003   18.37643744856975
H         2.17282976550655    1.48213498104551   18.31501604097026
H         0.88134276363545    1.97797333209799   19.38593924189850
H         1.53752694026322    3.11647958278567   18.23257037150370
Si       -0.07759774866626    1.05739938879563   11.32185482213266
C        -1.51961738652621    2.29992998826520   11.21278716599138
H        -2.21373185379742    2.13783926380615   12.03145760316943
H        -2.06564788814281    2.17928636914086   10.28255635756918
H        -1.17793549632710    3.33022925716335   11.26449395136648
C        -0.67739200817991   -0.74454189007780   11.18594637643551
H        -1.35411337466847   -0.97394646307645   12.00390658963866
H         0.15133202153001   -1.44797837875135   11.23290842810731
H        -1.20859433664750   -0.91995154957019   10.25556306500214
C         1.23005091619159    1.42882903507254    9.98052628555014
H         0.83547763506711    1.18201136779302    9.00096104604807
H         2.13501223273797    0.84560963509210   10.12289994962394
H         1.50884976752365    2.47768323478534    9.96262769539411

