61
CSD_code = HEZXAO | q = -1 | S = 0 | Stoichiometry = C33H25N2Ru(1-) | MND = 6
Ru        1.29360030823904   11.50960458680481    1.78928723531893
N         1.83192265931647   13.39335213644802    1.33545559309676
N         1.24465044041265   11.94431554238870    3.75228864460601
C         1.87502254722941   13.83688963748943   -0.05491306017671
C         2.72618743454483   12.96728451017106   -0.93850390204542
C         2.48166426973786   11.58475514252741   -1.00775679510391
C         1.43144524935816   10.93117116390745   -0.26668275662210
C         0.12310271975646   11.48390489240268    0.02948168742950
C        -0.34329715332724   12.75105633974759   -0.51505055280374
C         0.48085864461702   13.88143573287318   -0.63371622604646
C         3.33918562499911   10.82062881764011   -1.81742875468287
C         4.36576974764870   11.39285187832042   -2.53496665000046
C         4.57369871495940   12.76266402661752   -2.47804753217760
C         3.75047715409227   13.53486102191914   -1.67539899583942
C        -1.66000513413571   12.86114362991400   -0.98014753501437
C        -2.13151393299430   14.02237659140819   -1.55763601175813
C        -1.29389207105383   15.11571734650009   -1.70037263501414
C         0.00738265554404   15.03565946423407   -1.23084021392883
C         1.07521459244673   10.88414090978271    4.74176453072730
C        -0.13955945507983   10.02934670154680    4.50690382195188
C        -0.32383937546181    9.39787213807838    3.26466385776930
C         0.61026727903138    9.51760577908713    2.17257793201983
C         2.05395580090557    9.60242517849751    2.28945661373220
C         2.75791656640123    9.44531207505022    3.55406150137632
C         2.29037141540266    9.98759274207546    4.76172171793814
C        -1.50033369607626    8.64877284902587    3.09317811763303
C        -2.43090949529019    8.51305575329268    4.09907143691834
C        -2.21829761923796    9.11857159828371    5.32829484283401
C        -1.07296892914401    9.87424676348178    5.51638830178341
C         3.93952362749687    8.69436155158368    3.59881048293761
C         4.61260214680728    8.46929656929763    4.78225016593140
C         4.11791279278251    8.98163467564855    5.96974749356947
C         2.95990749324842    9.74235304637018    5.94687201541841
C         1.93719802589741   14.37692761084750    2.20411438126418
C         1.87278715307434   14.26822539614057    3.58407380778476
C         1.58756211571220   13.10220603899818    4.27639004855460
H         2.28977571938064   14.86011580576228   -0.09620372648545
H         1.40886296741166    9.85531733289077   -0.47842127465017
H        -0.67968367305426   10.73356240493273    0.02010712858900
H         3.17830427049787    9.75165272744448   -1.87642780377796
H         5.00723705308428   10.77420542045168   -3.15018148820406
H         5.37412125685180   13.22217900501692   -3.04202553992756
H         3.91883531476052   14.60342283798444   -1.61410833827373
H        -2.31780081878200   12.00685041728478   -0.88581838095228
H        -3.15514867993202   14.07551784347306   -1.90595194198075
H        -1.65287430359092   16.02779553673639   -2.15781544093428
H         0.66113633596808   15.89444348673594   -1.32047964201267
H         0.97435171166142   11.33691405369247    5.74453381261550
H         0.27995163370620    8.93451317560418    1.30439875149946
H         2.58834119191435    9.09121264146711    1.47667144072782
H        -1.67020990455731    8.16367082736279    2.14033757023098
H        -3.32630572585718    7.92701332943549    3.93323958609213
H        -2.94075880341960    9.01350009407245    6.12636134790728
H        -0.90978149929621   10.36330230159485    6.46934641365178
H         4.32628640859808    8.27842761747101    2.67751080596293
H         5.52471691180445    7.88626795482774    4.78250975871303
H         4.63577062446557    8.80561152083784    6.90293126508196
H         2.57928183685404   10.16313738048873    6.86937966274932
H         2.11263641636602   15.38851750741424    1.81708902946871
H         2.05966833633069   15.16148714694295    4.16505328354480
H         1.64041510097178   13.17644179167550    5.36977111098330

