36
CSD_code = HEZZIY | q = -1 | S = 0 | Stoichiometry = C12H17Cl5NW(1-) | MND = 6
W         2.53872701559503    7.22636540330267    6.49755523834114
Cl        4.73886925612551    6.31203185567722    6.72901311368751
Cl        2.99148252728208    7.50413463025839    4.16371120225834
Cl        0.49175309983392    8.45277384334684    6.31397043021294
Cl        2.26462751828226    7.26847314388008    8.87115323740159
Cl        3.54493192579186    9.28423072261756    6.75422385492498
N         1.74516459480203    5.65353510824867    6.30451593454275
C         1.10733963417429    4.48904475465827    6.18061425912139
C         0.13207769483889    4.31526901525385    5.16767900777878
C        -0.53788304496212    3.10932784578785    5.08203611677055
H        -1.29022185134285    2.97154171991018    4.31828217029667
C        -0.26598618876832    2.07401236286676    5.96022858585845
H        -0.80382099465325    1.13939896270469    5.87928250684634
C         0.69550143986714    2.23800535341391    6.94339774748796
H         0.89845143839488    1.42453357314454    7.62520295587767
C         1.39507081667655    3.42308183259598    7.06902294771675
C        -0.16577610947253    5.45527661423245    4.22453120258502
H         0.55386046814473    6.26124034257074    4.43129985786086
C        -1.57028953816913    6.00537265029242    4.48123082233838
H        -2.32497945715044    5.23636640203237    4.32351514679334
H        -1.77112594528565    6.83842542095793    3.81175449114373
H        -1.64157849858592    6.36657961540693    5.50415639003152
C         0.00662610035343    5.03308187805186    2.76488133956877
H         1.00618946369528    4.63488292210784    2.60850788860078
H        -0.12412449123068    5.89481384946189    2.11455335780426
H        -0.72103515260966    4.27353680024016    2.48472992957263
C         2.42790831279275    3.62877762000632    8.14993168218340
H         2.96794268221930    4.56100812050294    7.92566500018223
C         1.73430444129841    3.80277804170602    9.50339257701100
H         1.07564301806776    4.66710834762361    9.46962929621667
H         2.47364126199065    3.96987923538925   10.28296098378155
H         1.14838785308668    2.91933665332210    9.75340098123911
C         3.44696146660502    2.49012142923733    8.19556634849772
H         2.98599605226801    1.55875716653027    8.51912413877046
H         4.24339042995515    2.73916264784030    8.89286857666202
H         3.88617276009726    2.34003411482055    7.21231068002468

