23
CSD_code = HFULFE | q = 0 | S = 0 | Stoichiometry = C11H8FeO3 | MND = 7
C         3.49919769165843    4.30077643641822    2.67308423061181
C         1.02482313565614    2.26995649122928    2.23253123701147
C         3.28232092200680    4.87301623939203    1.37939653153080
C         3.15737422274666    1.35519577560946    3.47385481744715
C         2.27195262866848    5.66617169511471    0.94045389196371
C         0.84904685212549    2.14605242701707    4.85567232763242
C         1.10266497432841    6.06556804337027    1.64186986385543
C         0.73426261587787    5.74358802351746    2.90802781111296
C         1.44390349665662    5.00315152841617    3.90618024798591
C         2.82049587718781    4.61472719215073    3.89240779902898
C         3.25159675153075    3.88099120374503    5.02923163911149
Fe        2.01342171527439    2.72299939697873    3.62527811456862
H         4.50966692019471    3.91994908563226    2.80442262763676
H         4.05308808892338    4.63081157934013    0.65680917359289
H         2.33842229584162    6.01953472039637   -0.08044458400342
H         0.41307196112046    6.67722525943557    1.07456041268389
H        -0.23816949363839    6.09685456615781    3.23123065937924
H         1.01640717402971    5.11389499370195    4.90033306785707
H         4.30183928562155    3.61929742149893    5.09974294427828
H         2.81581288659556    4.12757363219447    5.99142853072468
O         0.38352364126685    1.97494182697493    1.32924331784893
O         3.80664436649608    0.41301973201980    3.42324472277226
O         0.13933198983055    1.67090272968834    5.61884061536857

