21
CSD_code = HGTXZO | q = 0 | S = 0 | Stoichiometry = C12HgI2N2O4 | MND = 8
Hg        0.00028256271197    0.00195823155202    0.00073450366480
I         1.05019382200471    2.38582445874722    0.19437532212778
N        -1.71467753838590    0.51781215721076    2.84906927806836
C        -0.54713183676515   -0.00160420058496    2.94629957430353
C         0.49090846566931   -0.49478378700674    3.39310054033923
O         1.67839380627659   -1.03066354144378    3.44581633663712
C         2.31761672451736   -1.24068640827844    2.33450044311306
C         2.95281126592175   -1.38041082279068    1.31409160085274
O         3.62249092151757   -1.60596899491033    0.22392869701148
C         3.08456611976051   -1.28350535550387   -0.91920305063803
C        -2.27767512754853    0.85481546641311    1.74820113208910
I        -1.04883780662051   -2.38244410661577   -0.19403535936489
N         1.71324266479672   -0.51770859111375   -2.84705706658029
O        -1.67627468767894    1.03554606255441   -3.44617950228049
O        -3.62448355892108    1.59885238199804   -0.22512188545836
C         2.27537277301198   -0.85799726479946   -1.74686326272320
C        -3.08501683202435    1.27757214507854    0.91758693523013
C         0.54715614473171    0.00479531242218   -2.94430886067944
C        -0.48906425266575    0.49887129564867   -3.39486831299016
C        -2.31429628389553    1.24570661729441   -2.33414973566190
C        -2.95557734641356    1.37401894412787   -1.31591732705902

