159
CSD_code = HIBFEE | q = 1 | S = 0 | Stoichiometry = C103H52NP2Ru(1+) | MND = 8
Ru       40.09680318982355   12.24512360779084    9.06454370304046
P        41.73196286278053   13.28130002519262    7.74566450759242
P        41.81958094579827   10.70676850092527    9.51527890626930
N        46.76239431671002   14.09166936483370   14.89989353841423
C        43.34940517167952   12.84455204674754    8.58320969307740
C        43.37349819757492   11.32500721720876    8.70369458836716
C        41.84549243341286   15.09397885772523    7.59141264787227
C        42.29628641229916   15.85226504458711    8.67049768817645
C        42.34525827092421   17.23130811031536    8.58642519524375
C        41.93851430282387   17.87638082150823    7.42995055397639
C        41.48446674213098   17.13243468484911    6.35416227296852
C        41.43476884943176   15.75203138816155    6.43314144062041
C        42.10973604720155   12.66560955130532    6.07108607140685
C        42.93490619837873   13.31822099888916    5.15948876105002
C        43.23140835250454   12.71423446165770    3.94991900416862
C        42.72248331951707   11.46210046823982    3.64270292844618
C        41.90588656602345   10.80543797518683    4.54889708105474
C        41.60157835860972   11.41103601422105    5.75428525911200
C        41.92178766952441    8.92760499838105    9.07824417433397
C        42.19043686613617    8.51127135998898    7.77636923717921
C        42.25159088455892    7.16420587008025    7.46715304414294
C        42.03247573059744    6.21135177691174    8.44763547771442
C        41.75900149132271    6.61479046641163    9.74386941990936
C        41.70358403679079    7.96052430439462   10.05852276957477
C        42.37497941861241   10.59869233981918   11.25909540597429
C        41.56697260708223   11.09567484809174   12.27257051965294
C        41.97661681704253   11.04798169558299   13.59302539918591
C        43.20034743849067   10.48736565125887   13.91438726540906
C        43.99800169535320    9.95413803879906   12.91390010030558
C        43.58878908856268   10.00146550261112   11.59449305162898
C        44.60072899097180   13.37085170744351    7.89238418789495
C        38.92758645032863    8.97803859183511    6.81533804539389
C        38.65296207939639    9.13141308560438   11.18786288736152
C        38.33233491398735   13.40268758522614   12.45952903562296
C        38.56361542122480   15.81870225236671    8.80036010957214
C        38.86263618154923   13.16555829936100    5.32804646219263
C        40.92281386171657   13.36031340102747   10.41134602208907
C        41.35386528953369   14.07171736300056   11.32934131813179
C        41.81697989792248   14.80883715046386   12.37119230717975
C        43.08184312957701   14.64076492555953   12.97360786993114
C        43.98751498320129   13.64199691127117   12.55911711466393
C        45.18720123548499   13.45948550098387   13.18506911232774
C        45.57980941893654   14.27474542334928   14.27261823613613
C        44.67971610906121   15.28777312331624   14.67760620101946
C        43.47632100378502   15.45790156527885   14.05344129405152
C        47.22620793839970   15.02169680693420   15.90297360122904
C        47.59764676432568   12.95380040651528   14.59654463837887
C        38.27616586840054   11.08077686598165    8.18808353840503
C        38.18146910988347   11.12768021366471    9.63553186605739
C        38.21485480790183   12.41706687359545    7.71063433725970
C        38.11280388131134   13.30566453504909    8.84357167557221
C        38.05032304372622   12.50027265526123   10.02634513184851
C        37.61704937743274    9.98925304682607   10.45972744419849
C        36.55615785120537   10.55274936435142   11.40103584863726
C        35.36649551844027    9.76588501284176   11.31706801911043
C        35.48113807628964    8.89098724854560   10.18391497154887
C        36.73993389876413    9.13211317281394    9.55442659797416
C        35.16530807523490   13.77688794411723   11.59447302140888
C        36.42042719767083   14.05903766907506   10.97718077203929
C        37.41407319856031   12.95691552514577   11.31914017809579
C        36.46486932428764   11.85844552413218   11.77642471297770
C        35.19169986794358   12.42590188017969   12.08408550738941
C        33.98161357676836   14.30966921861246   11.09826538351705
C        32.78489046526106   13.50843227503363   11.05254180359608
C        32.09258899434364   13.82034475130931    9.82857125197295
C        32.86031874639437   14.81844974980369    9.12797000075877
C        34.02943164067378   15.11354991446636    9.91695055830201
C        31.55039731275091   12.76866129987810    7.68148291574898
C        31.45077360131911   12.81214364927598    9.11838369140858
C        31.47734200394101   11.45702173183911    9.60792832071737
C        31.59320284640783   10.57598242220457    8.47353509580149
C        31.63789052461018   11.38661370019441    7.28294758674675
C        32.28873872179545   13.73461349589021    7.00709646602469
C        33.14227431390799   13.35220563906504    5.91164751894146
C        34.33802175071754   14.15323879403368    5.98372391038328
C        34.22475470266099   15.02765597711771    7.10896568594876
C        32.95650151282051   14.77635526265920    7.74529712654508
C        34.53447130680416   10.10606863065150    5.68639548069211
C        33.26883780636901    9.83140683350877    6.31813409685941
C        32.45989713625384   11.01988980090824    6.22346832068466
C        33.22545895188948   12.02200009107642    5.52718402545050
C        34.50727662096774   11.45065990012620    5.20102891067485
C        35.71494718124247    9.60863581360876    6.22748996713476
C        36.90715090510172   10.39374046288674    6.25981168712008
C        37.82715907109364    9.88912121418887    7.36700700425193
C        36.83224147930807    9.08931419373391    8.19791532362779
C        35.67055952211584    8.80485738972055    7.41733307448218
C        33.06671840807590    9.12257439469943    9.78735242235917
C        32.37265023976099    9.42821454229460    8.56228449193910
C        33.22619346607579    9.05172559142981    7.46447108780098
C        34.44822245587990    8.52400660064687    8.01614775211504
C        34.35078689241640    8.56809093364699    9.44171690439050
C        32.95545127489002    9.97026075889781   10.87930125111735
C        34.12392949741422   10.28821607214925   11.66043759412604
C        34.03331017646740   11.65891353963578   12.05680700679923
C        32.81041379391014   12.20393747456388   11.52400016702657
C        32.14488260981002   11.15825324511097   10.79030778634349
C        36.63394665446844   14.75830038276925    7.52417363886526
C        37.52416335801506   14.69515818147329    8.76018614115900
C        36.47121016490781   14.82919115341863    9.85542298361699
C        35.25703691618846   15.34054568150351    9.30333981110187
C        35.35680709239628   15.29669147824069    7.87077096016904
C        36.73736856699816   13.91941772420239    6.45573667159792
C        35.57686411575477   13.59631628599834    5.68919919957535
C        35.66225865341131   12.21923567582706    5.28737125295504
C        36.87818059316800   11.67470566540215    5.79811824335916
C        37.76145131127937   12.79891518618926    6.32261718424568
H        44.75254206804723   12.88619781529523    6.93016401435370
H        45.47278733578118   13.17124012213951    8.51295800443192
H        44.53508071182321   14.44608214768875    7.73826638347896
H        39.48103773998969    9.48037477590731    6.02620971700614
H        38.47540724060097    8.08271139923722    6.39360890300614
H        39.60992232680603    8.68051773785418    7.60926625937177
H        39.32833080668234    8.68355008348556   10.46133941815549
H        38.15101100643012    8.33623151479364   11.73502238422777
H        39.22629946897995    9.73147261459421   11.89107954967928
H        38.96856479973502   12.58492107677830   12.78840295651508
H        37.71858144636661   13.72110330944135   13.29994773692588
H        38.95253680759629   14.23445723513307   12.13886055928510
H        39.18903614158587   15.72074711665835    9.68652753019902
H        38.06583127470205   16.78538331303799    8.82028177115745
H        39.19964167926060   15.77102429797137    7.91863962300341
H        39.54910433780745   13.87161338914665    5.79248459349704
H        38.42223442283923   13.62456513040690    4.44542873510358
H        39.41347846723953   12.28079536951701    5.01907757494634
H        44.24347397210288   10.99841548253005    9.27940135250887
H        43.44586533868637   10.88716661808063    7.70369555160409
H        43.28017424059318   13.27732823461460    9.58914481732884
H        42.60560927531535   15.36231735953786    9.58065325781446
H        42.70283142942427   17.80481272778903    9.42845463618089
H        41.97523866589144   18.95286778626046    7.36682411203517
H        41.16603884510307   17.62637386021291    5.44861914378422
H        41.08518552572043   15.18942513738411    5.57923090033685
H        43.34158821253607   14.29214572825134    5.38729903710656
H        43.86819020614769   13.22398130730273    3.24285161358631
H        42.96090464207712   11.00013546989741    2.69718238134461
H        41.50686168961598    9.82941877941339    4.31178414984486
H        40.95415251148578   10.93104192781610    6.48176500273206
H        42.35617147769435    9.23331885944918    6.99149270420533
H        42.46964793948097    6.85928185213288    6.45470167135148
H        42.07679070882519    5.16136625115309    8.20358058449509
H        41.59004383646516    5.88010182769266   10.51650198921363
H        41.50708387819208    8.25990332005113   11.07794497236918
H        40.61627880984647   11.53564286122328   12.00412952324151
H        41.34151586564450   11.44619113519305   14.37015997743669
H        43.52633468473460   10.45208866517412   14.94272010120673
H        44.94070817860875    9.48997000966672   13.16372961788194
H        44.20664035722771    9.55156344448258   10.82960908413373
H        41.16475308217827   15.56887468432430   12.78941463070708
H        43.70947196445043   12.99991636800872   11.73645371478676
H        45.84272490408079   12.68352763045274   12.82645374936281
H        44.92720618879382   15.92912824191714   15.50654023248224
H        42.80527752076165   16.23217011343110   14.39654624801480
H        47.13968850014439   16.04919022339017   15.54583589172288
H        48.27422055036367   14.82947036179535   16.11738312567181
H        46.65988358428795   14.92192644412775   16.83369182931353
H        48.36327336967085   12.85300704296247   15.36139099725269
H        48.09208948494199   13.06712852421649   13.62692323769519
H        47.00809849160985   12.03536286830846   14.58664491742560

