33
CSD_code = HIBJUA | q = -1 | S = 0 | Stoichiometry = C11H14Cl3N2O2Ru(1-) | MND = 6
Ru        3.24837697970541   13.99100330460592   15.09700557958617
Cl        2.03477030349626   14.75984176129783   13.19492585775211
Cl        4.68073698280251   13.01664852008646   16.73961489383187
Cl        3.86548266780438   16.18172103853614   15.68647338055342
O         1.07794920897310   14.18084076236219   16.89142922325157
O         4.83444881411944   14.05154224212138   13.91483370976828
N         1.96031630897789   14.08809212257035   16.13977800600578
N         2.94596563911542   12.03174759028905   14.43775402893798
C         5.34743326014328   13.21662095106838   13.10338414199257
C         6.50021804261621   13.59226586916276   12.35947013681705
H         6.88488928140418   14.58794093901542   12.52368420020432
C         7.09142200098493   12.73297407096273   11.47740328504299
H         7.96672093988184   13.04728853294252   10.92463756063018
C         6.57917221610493   11.44480728484666   11.27892365476115
H         7.05661384264705   10.77501443550888   10.57832863383618
C         5.47297558136149   11.04600273688047   11.98079088927135
H         5.06877868466097   10.05172848387011   11.83615632949415
C         4.82993049983748   11.89888587671595   12.89539288740788
C         3.68945762092429   11.41182172351832   13.59101978025419
H         3.43236255485381   10.36985482266542   13.36757149582491
C         1.81822733952136   11.32277862649830   14.99400047370190
H         1.80970969640402   11.48635141902804   16.07744136014240
H         1.92776645370021   10.24350383015140   14.81019981928424
C         0.49784348374339   11.80445629662546   14.37895891461215
H        -0.32795464721340   11.36597313282842   14.94414666439619
H         0.43561866102156   12.89208312472515   14.46286277105808
C         0.38015538675030   11.43350825739761   12.90335252567393
H         0.40865061745799   10.34494096619924   12.79020040233046
H         1.22874053450727   11.86026858736104   12.36627167960234
C        -0.90369450067747   11.98628745062476   12.29959437180711
H        -1.77526061680465   11.61527932752372   12.83693058099230
H        -0.99164835819095   11.69690444162867   11.25453017782392
H        -0.89217548063836   13.07122147037854   12.35743258334790

