62
CSD_code = HIBLAG | q = 0 | S = 0 | Stoichiometry = C25H30N2O4Pt | MND = 4
Pt        6.69248358250184    8.81910561571724    1.87304304883340
O         8.69586427943929    8.70920868798754    1.14197558055359
O         6.77583166174718    6.84852468173961    2.29280800010959
O         1.63099859705949    7.44419189175161    3.46938003410753
O         2.20191157043749   16.39307941627024    4.42718925060805
N         6.47926894760391   10.75744473504079    1.52803695785639
N         5.31820687622858   12.64423335862280    1.77215507792287
C        10.77383856756407    7.77665798941265    0.49481324201015
H        10.96413252240805    8.80640668715251    0.20262411429653
H        10.86736552541648    7.13198750196521   -0.37646889294474
H        11.51457786270869    7.46708956867540    1.22911451804827
C         9.37956714277347    7.65754045013230    1.08047653047758
C         8.98377298085562    6.38487550271599    1.50547325437738
H         9.69270462319699    5.57950308778972    1.38606940239048
C         7.74827290990072    6.06983679449332    2.06768437129789
C         7.52784181564673    4.62042660850666    2.45759488609782
H         6.55184586882951    4.51125452792580    2.92304466649433
H         8.29850102149161    4.29595178550108    3.15298405352943
H         7.57624676968366    3.98751401753743    1.57393647210239
C         4.79341798617039    9.04701285881213    2.43567834051301
C         3.90408212942516    8.05533104636531    2.82549551559129
H         4.27326107597649    7.04675653989800    2.92672157491327
C         2.56635373527221    8.35113079701833    3.07250580805313
C         2.09805371663433    9.65837137629669    2.89876233812976
H         1.05051704987047    9.85385939921262    3.06513040146073
C         2.95887763604549   10.66137343138085    2.51834768763085
H         2.58170361165001   11.66215784645170    2.36835136871167
C         4.30748696383931   10.37054203421778    2.31295985592006
C         5.34326603273526   11.29047256125315    1.89888722589063
C         4.51672568574378   13.55477418990977    2.46605184911686
C         4.22584612032683   14.79387269695352    1.89562743719033
H         4.59664831168811   15.03183647421574    0.91079133559853
C         3.45818570457197   15.71184647573785    2.57724706358712
H         3.22388516469800   16.67028310632726    2.14233221907905
C         2.95827647578245   15.42000601217002    3.84751317242591
C         3.26412282743680   14.19238045780614    4.42602418450333
H         2.91103968486644   13.93764740887495    5.41240030494591
C         4.04606984396386   13.27723975841102    3.74522868904684
H         4.29250250439659   12.33529213516969    4.21000757409694
C         6.56877321497527   13.07103294522763    1.15516605384130
H         7.00540232983116   13.89797848930305    1.71775426580628
H         6.38835679271750   13.40365694606030    0.12742422085695
C         7.43548605441844   11.79377927716069    1.18165923183962
H         7.85449477731138   11.58471598409437    0.19196891275674
C         8.59848702144014   11.80330763093866    2.19682314416927
H         9.07659339433739   10.82348061224321    2.10492881496176
C         8.09316604523549   11.94648288768374    3.63052101319495
H         7.43469857056756   11.11221323832891    3.87691286829839
H         7.54914710977794   12.87864326250430    3.77378128259649
H         8.93196044265086   11.93284669120044    4.32224255223977
C         9.62497432238744   12.87798290103496    1.85189159269189
H         9.95422245542428   12.77743770919597    0.82016806322182
H        10.49368251296123   12.78321037047124    2.49885391939338
H         9.21511120732334   13.87702353282456    1.98563466460145
C         2.02835346741429    6.10669629719884    3.65144450923028
H         1.13352310620208    5.57404407542355    3.97089748743682
H         2.79869031000124    6.01912537269705    4.42400693848656
H         2.39859741810357    5.66837322745747    2.71950805371997
C         1.66230708494553   16.15254839900611    5.70395998766021
H         1.09169905571106   17.04518207148998    5.95517108658774
H         2.44818418308653   16.00428522469553    6.45173532644076
H         0.99433373659748   15.28523333832827    5.70144749540154

