56
CSD_code = HIBMUB | q = 0 | S = 0 | Stoichiometry = C28H24NPRuS | MND = 8
Ru       15.92742211654249    2.31077879904343    2.49492522544926
P        14.18828180348514    3.28826225148970    1.45101732560296
S        15.56154451458192    0.18869766961188    1.29221124245787
N        16.90880240078173    2.24625140032834    0.72116513605992
C        16.60549811813896    1.02792293446135    0.21844990095688
C        17.08872838744077    0.59448188344559   -1.01503855881921
H        16.81484896396309   -0.38461744076731   -1.37249521974323
C        17.89817554243292    1.44660012588743   -1.73462492528646
H        18.28672327379588    1.14986468298248   -2.69688561668317
C        18.21058887553840    2.69969518850623   -1.20822215443691
H        18.84274255489279    3.38541602967708   -1.74851983490013
C        17.69596457668759    3.05855785739083    0.02066275550408
H        17.91061348478424    4.02524515630416    0.46026875659937
C        17.35071880305057    1.61209697042094    4.02968377372896
H        18.07190396400908    0.80588329633523    3.98997454125905
C        17.63037802726529    2.98689431332458    3.81309453309855
H        18.58513634203504    3.39404684553267    3.50501955323172
C        16.49030181115135    3.73746666368363    4.16983039119747
H        16.42911587046330    4.81525114769581    4.24438990025720
C        15.49491223462097    2.81953797627607    4.64667609944826
H        14.57011737467345    3.10391412415148    5.13463332999990
C        16.03642895620062    1.52027495669509    4.57491388543957
H        15.57829635339685    0.61594757399921    4.95521433643578
C        13.89189023339029    5.01961431332299    1.94170647518005
C        15.00863257926182    5.85383678056816    1.93879301800401
H        15.96735316258805    5.43532209107929    1.65303436905573
C        14.89656869913047    7.17995281589520    2.30772243352230
H        15.76468529218059    7.82355868551491    2.29349044186927
C        13.66671514764566    7.68190175856246    2.70585852221557
H        13.57581043923679    8.71674536451397    3.00141301048488
C        12.55945623235885    6.85192435991558    2.73685369901736
H        11.60456377760792    7.23910267751301    3.06165634586127
C        12.66638291707787    5.52448587284460    2.35598717950350
H        11.79843343801446    4.88213459213749    2.38892921350895
C        12.54548044951427    2.52179498889497    1.62328383454300
C        12.38059768344203    1.54531445095512    2.59685580653002
H        13.23749891792188    1.26041652731088    3.19773037781152
C        11.15058410068429    0.93609398307410    2.76904616645873
H        11.02509651732360    0.17253913319250    3.52258717557701
C        10.08243915675744    1.30179753065649    1.96689598843157
H         9.12127636214682    0.82620612385679    2.09735961756236
C        10.24428805775346    2.27227555478664    0.98943113722919
H         9.40999162396706    2.55053563536981    0.36159766193477
C        11.47175459843823    2.88266530582102    0.81311123568741
H        11.60804873634991    3.63477077749873    0.04703997325811
C        14.30716792334953    3.39713723515620   -0.37044303520015
C        14.08303161054302    2.21376649432315   -1.07456187627191
H        13.74298431871243    1.33586627533920   -0.53928823212969
C        14.29520754338658    2.16315099529750   -2.43842048426595
H        14.12121386862331    1.24231049164871   -2.97549903948184
C        14.73673430325294    3.28945401904449   -3.11422708957702
H        14.90772888736762    3.24904913448685   -4.17995088400250
C        14.95454996146246    4.46815174687236   -2.42172835759758
H        15.29162977954002    5.34979231817527   -2.94774932709621
C        14.74714079494323    4.52427731552134   -1.05452832206406
H        14.91581853589638    5.44958424376618   -0.52253141258426

