66
CSD_code = HIBNOY | q = 0 | S = 0 | Stoichiometry = C26H30AgO8P | MND = 3
Ag       12.62361707779991   13.25910575079698    6.50026617964743
C        13.85667444477283   15.46261504214356    5.62974741048009
O        14.58423395715947   14.59909183402260    6.16364197484390
O        12.62418420940086   15.30798760458097    5.46273023598290
C        14.48831362215932   16.76928966459950    5.17281042465478
H        14.63019415819877   17.40882315701017    6.04174450080434
H        13.83521321949651   17.26947053801488    4.46425242332320
H        15.45923959512293   16.57232318286120    4.72678658653167
P        11.68123017660064   11.31469120267259    7.59458393046579
C        12.05269514642832   11.18269519356097    9.36443003899725
C        13.03210151991781   12.02780535134596    9.89343052743195
O        13.64206099788534   12.84378604973291    9.00231085110313
C        14.69971639930347   13.68271318940457    9.41718523186733
H        14.35822352490809   14.42435150582521   10.14615131786908
H        15.02948170687263   14.18478677770764    8.50764512245120
H        15.52421199840779   13.09917347484668    9.83771225049762
C        13.32930324915212   11.99790435842627   11.25286505336957
H        14.08612620099594   12.64981835447953   11.65352674493132
C        12.64202251918459   11.11961463092212   12.08068031513476
O        12.85190224010839   11.00320565096920   13.41954454186534
C        13.81015266531124   11.83281681999038   14.03216629485209
H        14.81320385303357   11.65225070943647   13.63284833505859
H        13.79229722021762   11.57090758182191   15.08890861383556
H        13.55696298126628   12.89145788989982   13.91868500214187
C        11.66660927184596   10.26786707385460   11.56192578267426
H        11.17297707045701    9.59943145017061   12.24697091896729
C        11.37580362461994   10.29512006835215   10.20946444720365
O        10.47759564413187    9.49518732397327    9.59371338937771
C         9.72995482719735    8.58914470638302   10.36470919171022
H        10.37407120574567    7.84932570493828   10.85092996831512
H         9.06408714117890    8.08653819772497    9.66459295764867
H         9.13255422273568    9.10503603557696   11.12295490267027
C        12.20127299950562    9.76873448025366    6.80826403005495
C        11.98544865292923    9.80445366047167    5.42559051628472
O        11.41252326320152   10.96373505583674    5.00618011214478
C        11.08467177144785   11.12286586792424    3.64463807981350
H        11.97406320790601   11.06827746332230    3.00998780516021
H        10.64686590230715   12.11614967142734    3.56235218717206
H        10.35395847826116   10.37258266029194    3.32545300684512
C        12.33822841439670    8.74511269526008    4.60274478723551
H        12.15012532062065    8.78683575051411    3.54385671913666
C        12.95250022254280    7.63805340181821    5.17815488267610
O        13.33651912496845    6.52887436837794    4.49208792229370
C        13.13224979308825    6.48770349578158    3.10003847579400
H        12.06915224337225    6.55295477430813    2.84700482955093
H        13.51952036720373    5.52342458069774    2.77500927793880
H        13.67926185397307    7.28657343976244    2.58972813545447
C        13.22797863443153    7.61154199999394    6.54417922793498
H        13.72855792050408    6.73814652089214    6.92635686309555
C        12.87631546021839    8.67504094252456    7.36283724982071
O        13.15198550687376    8.73454260451762    8.68602132287442
C        13.81176725431930    7.65429746370982    9.29774469909212
H        13.23004558935125    6.73001481776856    9.22012902771625
H        13.91121498659828    7.93253504801689   10.34636705296839
H        14.80617140167137    7.49431935807154    8.86920989060843
C         9.86185836584031   11.20385447263249    7.58830002840270
C         9.19367403250586   12.28726100371321    8.15023149224488
H         9.77435094786587   13.10392305178007    8.56432591198809
C         7.81270031165558   12.32317170852884    8.17501851860912
H         7.30003956646344   13.16516036639800    8.61734009830060
C         7.08590460745347   11.28058316413744    7.62243182826820
H         6.00593846341249   11.30721968476201    7.63480475681626
C         7.74680919258204   10.20632306941090    7.05013319923513
H         7.17882478468918    9.39438192140295    6.61731950046348
C         9.12950003628667   10.16427716705885    7.03167209750390
H         9.64218563005027    9.31713819251173    6.59937099974799

