68
CSD_code = HIBPAL | q = 0 | S = 0 | Stoichiometry = C33H28IrN5O | MND = 6
Ir        8.41618263625176    7.94609086899051    3.92767094356743
O         7.50979633425132    9.15588930541229    5.44955541751743
N         6.77693774941007    7.78455146577348    2.80930819412474
N         6.93647493966281    7.19716505328944    1.61705051121568
N        10.10438068865284    8.20819993888710    4.95962272421981
N        10.74447854285689    9.35434580141520    4.70701154610562
N         7.81178569441219    6.21079426985181    5.09354573590757
C         5.50557965172580    8.14324378623788    2.90535626160493
H         5.13677608859295    8.64711477599966    3.77685734727587
C         4.82601186200044    7.77396856477602    1.74332665775262
H         3.79080420099212    7.92758858201079    1.51938444101860
C         5.77267230592586    7.17108053785701    0.94409203908557
H         5.67938767821181    6.74056075817676   -0.03114834321495
C         8.21960178725852    6.72456215865307    1.31377437659502
C         8.51767018437942    6.08501948656934    0.12096294245353
H         7.75940301161808    5.93841939555711   -0.63324925879305
C         9.80662229938326    5.62896031817457   -0.08694339258906
H        10.05857810573835    5.12709828806527   -1.00902588237879
C        10.76834159514213    5.81883782816874    0.89150250350782
H        11.77443287738796    5.45891580485647    0.72902776917618
C        10.45288038324336    6.47046149395809    2.07385245925173
H        11.22952899087333    6.60653290278101    2.81467904018268
C         9.16931204799752    6.94602300727704    2.32907886258902
C        10.72853524946438    7.62623980971621    5.97490347624428
H        10.39947193049587    6.68469652411930    6.36807504357832
C        11.80207271995629    8.41769614841862    6.38380047973231
H        12.49331031906359    8.21774000111362    7.17623518853699
C        11.77983954163446    9.51450465946200    5.54910105485353
H        12.42426071900885   10.36853982577587    5.51806514989024
C        10.25050696592498   10.14615976749993    3.66071988900712
C        10.85661385941488   11.33202712494200    3.27399902973660
H        11.73835875865615   11.69674094219050    3.77947670518050
C        10.30880361070878   12.04942679811826    2.22638539971560
H        10.76552251688758   12.97599808977607    1.91231519497750
C         9.17570095669527   11.57520253780864    1.58730103840279
H         8.74840180994368   12.13785673097058    0.76954271233576
C         8.58382080839247   10.38739791904429    1.98858976342365
H         7.69800775534129   10.05065352612832    1.46818573109213
C         9.10045918371341    9.63528399409125    3.03665941493868
C         6.93303336234903    8.78829717165968    6.51965341624911
C         6.42905069154701    9.80097436613870    7.38961876099855
H         6.57996652268727   10.82315847221785    7.07328212718447
C         5.79024476456813    9.51126604610125    8.55922931585891
H         5.42560290491544   10.31135619002894    9.18879689264659
C         5.60300501150407    8.18069409428719    8.95441288976734
H         5.09696244333647    7.95436352852380    9.88091540243410
C         6.07032876047437    7.17843509355170    8.15060175395637
H         5.92830803270374    6.14706169738477    8.45083629888519
C         6.73728890400393    7.42948558249989    6.93316553466340
C         7.16703784414450    6.28308999954905    6.20752384260400
H         6.90018275322992    5.35233443192092    6.71275998210275
C         8.10501022426895    4.90111143849639    4.53142692298778
H         9.08030726204390    4.99620683465646    4.04049605306681
C         8.20145572053753    3.72954738377147    5.52239592623546
H         8.83179763357169    3.99130733380533    6.37044252016440
H         8.64819066533390    2.88219925449779    5.00758971581679
H         7.22289878169086    3.41821417929301    5.88206136343948
C         7.08203407477161    4.54736233055353    3.46954723322427
C         5.73381685738160    4.82465629656156    3.65014934464419
H         5.40244562644455    5.32967050499246    4.54646307198146
C         4.80856711295080    4.47194020506608    2.68392576292838
H         3.76359172995409    4.70015510013867    2.83424530662135
C         5.21982753655712    3.82922303524073    1.52927114311310
H         4.49693279483031    3.55412418789126    0.77544109912000
C         6.56143607064123    3.54017994475859    1.34673468417219
H         6.89113957967620    3.03714531562847    0.44954066676862
C         7.48642686509928    3.89848334621028    2.31039573323602
H         8.53368310751125    3.68006784265600    2.16002906730907

