57
CSD_code = HIBPAJ | q = 1 | S = 0 | Stoichiometry = C26H24CoN4O2(1+) | MND = 6
Co        3.16056301926852    5.86453531808000    4.50388422308144
O         5.01706378888762    5.84239720341398    4.19330574202178
O         3.48468499661110    4.99316029920453    6.14222899270819
N         2.78430884074555    6.68158248767265    2.84963351306758
N         1.31307685180710    5.92801695313468    4.79613330602106
C         3.62752366348840    6.92398897154524    1.89696372210733
C         0.64405871690742    5.25798878047069    5.67685678984707
C         1.38275680375082    6.98730207841890    2.61708368305130
C         0.63001493275257    6.88154470106528    3.94669187904383
C         5.64756339522207    6.16461498383858    3.12004693632263
C         5.02100097632434    6.69129071819937    1.94625497266211
C         5.81031496234583    7.00851804911160    0.81841918964805
C         7.16447377527510    6.82749666526275    0.82464132316737
C         7.78581697211421    6.32205992867831    1.97512770907786
C         7.05595706954908    6.00283658486565    3.08683577295172
C         2.62823933353554    4.33190271145159    6.83896381503178
C         1.21069945378723    4.40482098638122    6.65303378118028
C         0.35797711327642    3.65565484264506    7.49250876071337
C         0.85759019591461    2.85455040950811    8.48060882640272
C         2.24391826108617    2.78450963555293    8.67369710096719
C         3.10214793120336    3.50004904978905    7.88437341811417
N         3.39315158117969    7.59003811225659    5.40319776909240
C         2.93056934026191    7.77217857500272    6.64199116886806
C         3.23149321386000    8.88708414588243    7.40400545923555
C         4.05046787179153    9.86918115195440    6.87124723700672
C         4.52005101208221    9.68988704755433    5.58062121622337
C         4.16951542299982    8.54461510550411    4.88736383862629
N         3.06979880453884    4.06998446840850    3.74111399742385
C         4.06840073112383    3.23646287033094    4.04119181190018
C         4.09452443346418    1.91646396941105    3.62646797536490
C         3.04504011448624    1.42271256693213    2.87032257847376
C         2.00491007716900    2.28565201822585    2.56273311167761
C         2.05755826064640    3.59075999842344    3.01594825505219
H         3.24657825845491    7.36013261954151    0.97222517094805
H        -0.44175128223199    5.36496321723916    5.69634038324368
H         1.27197390311262    7.99255995235186    2.19651517876900
H         0.97116666263905    6.27852772105523    1.88793568810792
H        -0.41526934532902    6.59515298946013    3.78565643746494
H         0.63894704628473    7.85774726796650    4.44784692115486
H         5.31617054370860    7.40154122493597   -0.05844901133483
H         7.75535714379012    7.07174427880725   -0.04312394651442
H         8.85641808437833    6.18341374193677    1.98176735394737
H         7.52834162763358    5.61622656835716    3.97632909910558
H        -0.70861743697481    3.72712886482857    7.33475645388212
H         0.19621022321006    2.28398069166659    9.11224442746875
H         2.63877079091284    2.15595113628966    9.45755447717066
H         4.16987043496781    3.45568087555796    8.03184393771900
H         2.29682111104945    7.00149600277528    7.05469803154201
H         2.83116983378743    8.97365937461766    8.40128754884654
H         4.31328195635973   10.74548710906472    7.44279291488867
H         5.15671011174589   10.42195953981578    5.11046127017238
H         4.53554306572849    8.40065253131900    3.88190561920043
H         4.87083051754241    3.64518508026431    4.63787175643936
H         4.92874066845946    1.29066607681827    3.89926655811817
H         3.03373088450059    0.39818905700733    2.53285237309091
H         1.15948573709327    1.95579760973771    1.98046969379121
H         1.24588754171962    4.26501508041099    2.79005378664043

