99
CSD_code = HIBQUG | q = 1 | S = 0 | Stoichiometry = C52H44P2Rh(1+) | MND = 6
Rh        0.57467901615645   12.87104755748419    2.89769261586759
C         0.38497755125088   13.68707665172265    0.88412617698850
C        -0.82432658134339   13.89543142983498    1.51480917402319
C        -1.28694771230376   15.24020682913430    2.02095855109619
C        -0.94929878675521   15.43610466545957    3.50752416732835
C         0.35505506189831   14.80452835309755    3.92180705218050
C         1.54193405286437   14.84477017811032    3.22324259101562
C         1.74729293796663   15.58906716467658    1.92404148358489
C         1.44756779686891   14.73529158476087    0.67385235542657
P         0.07834782559292   10.74708784901570    2.24981311303130
P         1.88101627823921   11.89881756997720    4.54523154329201
C         1.62277261805246   10.19087880810308    5.16825287271456
C         1.17469311566248    9.96408424276650    6.48545901576854
C         0.88840721661072    8.70505557805113    6.92528446633268
C         1.00772436611721    7.59421884085572    6.06768588567883
C         0.65976720645907    6.29272852362485    6.48232821375084
C         0.77397774749789    5.23428125804593    5.62586621061558
C         1.24350787699660    5.43382454120875    4.31831268806391
C         1.59666072980182    6.68224602142292    3.88946113141224
C         1.49250051739497    7.79770840629220    4.75007141324358
C         1.81315579839474    9.11222014288557    4.32011200310464
C         2.39410559291424    9.30935939341570    2.97575023554875
C         3.71687317211646    8.84759598273720    2.72067767103298
C         4.48468520899625    8.18052105105283    3.69943522736216
C         5.75557472188508    7.75766705575851    3.42545114621123
C         6.32933406969032    7.98866041809551    2.16711846280210
C         5.61943994887143    8.64777641730189    1.20329196697995
C         4.30645741260787    9.09397419370368    1.45327601987980
C         3.57565612874286    9.80988230359432    0.48148837656368
C         2.30847226434811   10.23588433248653    0.74209940309534
C         1.68714882893459    9.94977336558663    1.97940810259968
C         3.59579429666181   11.78636188169933    3.94747241995764
C         3.92047092921737   12.30374825938799    2.69920831443250
C         5.21640518762952   12.21514687733136    2.22593995949916
C         6.19398132090035   11.61169144085853    2.99954533839534
C         5.87518329314278   11.09508337792875    4.24573178539168
C         4.57995069110016   11.17616665284680    4.72071132516430
C         2.02098163564373   12.87789715821917    6.08007405358878
C         3.20241913582830   13.47556522863816    6.50187707924943
C         3.21699120350038   14.25131114646899    7.64950565489143
C         2.05732666611838   14.44546813415705    8.37968617548442
C         0.86874433860667   13.87289965666584    7.95327599407983
C         0.84832958412909   13.10394358923523    6.80540493122110
C        -0.87068283188452    9.83813150839786    3.50733686866122
C        -1.45133246550263   10.56874415637381    4.53680308349753
C        -2.25431503604815    9.93773081564873    5.46820166219564
C        -2.48621651315555    8.57566429275772    5.36367987184531
C        -1.93049429658050    7.84958166944650    4.32182842264884
C        -1.13145807368267    8.47818312461701    3.38581657169264
C        -0.95959951247200   10.25013469532124    0.82777322920984
C        -2.27828165898442   10.70367063243317    0.86189598233099
C        -3.17129682544382   10.34725557998638   -0.12911484475176
C        -2.76084561200664    9.51811475733280   -1.16141756929235
C        -1.46565319976039    9.03065901987750   -1.17923361128580
C        -0.56583803393086    9.38815242650255   -0.18882856932583
H         0.45612265216024   12.84294017639952    0.19473945140169
H        -1.62511706071402   13.19099055707786    1.30282667080103
H         0.41234188552227   14.61510171574898    4.99310510732602
H         2.45402587712152   14.65748566513953    3.79120910028783
H        -0.83879224154308   16.02793501109410    1.41574593184423
H        -2.36854449656239   15.31268482985394    1.89655416261422
H        -0.91338569571210   16.50320979456911    3.74915582948831
H        -1.74708315632901   14.99859460376503    4.11444535019638
H         1.12434041365447   16.48402704742080    1.93127620924375
H         2.78533504996748   15.92082975829309    1.87232605507365
H         1.13603083228694   15.38550549621530   -0.15004175565851
H         2.36505574892391   14.23679209200848    0.35057983611850
H         1.07474520758104   10.79585214973609    7.16486646867097
H         0.55537544495028    8.54693195860361    7.94031530920324
H         0.29630386753405    6.15188606015287    7.48943315414907
H         0.50361241735964    4.23988737412538    5.94666906834441
H         1.32360277735916    4.58983467602921    3.65003056806057
H         1.95454275440369    6.82772649311482    2.88104767058548
H         4.05675904481155    8.00055982902234    4.67360122454284
H         6.32709942026399    7.24219337240449    4.18229649704340
H         7.33335629834743    7.64619886135617    1.96874641122508
H         6.05274172370180    8.83811877040723    0.23247306662008
H         4.04359988483192   10.02407595785133   -0.46811794142980
H         1.76410465126985   10.81167459465941    0.00510160563671
H         3.13823086142008   12.76042114368355    2.09850867295344
H         5.46617882862127   12.61364624705775    1.25407798444015
H         7.20590078885404   11.54123702494894    2.63171291535879
H         6.63849468054824   10.62422059599052    4.84616194272780
H         4.32397191743677   10.76438096790328    5.68768340869955
H         4.11377875552923   13.33829256578807    5.93838845941947
H         4.14089718551823   14.70706996243346    7.97148546615106
H         2.07536106267836   15.04810775496980    9.27436794515709
H        -0.04118134481144   14.03211738879171    8.51224563090167
H        -0.08272472128287   12.67035100428447    6.45958539156501
H        -1.26257833332641   11.64183353361701    4.58795341720571
H        -2.70468402341952   10.50253309126605    6.27081118108061
H        -3.11093094978130    8.07959710494370    6.09037828167172
H        -2.12298468393084    6.79090471528138    4.23778305818835
H        -0.70359816919567    7.91996021827619    2.56465462055216
H        -2.60720183758334   11.31565784946115    1.69285439820579
H        -4.18825876919181   10.70755714459872   -0.09435594022430
H        -3.45426752954041    9.24022757618880   -1.93988134312877
H        -1.15078149955862    8.36198220143152   -1.96613871608794
H         0.43352827361316    8.97968827011023   -0.20866529133429

