32
CSD_code = HIBQAL | q = 0 | S = 0 | Stoichiometry = C13H15Cl2NRu | MND = 9
Ru        6.79293740911946    2.83503190142901    8.32413471677330
Cl        8.74414265103614    1.84168325752355    9.16510546154483
Cl        7.26350992445204    4.68268276181181    9.68040521649413
N         6.05443018394559    2.11537594483701   10.20930654025961
H         6.02844461663428    1.09205987038400   10.25329273971149
H         6.79049252786264    2.41654707603992   10.86713873929079
C         4.77708728888618    2.68399971045132   10.66663497703536
H         3.96087327912083    2.25305130471871   10.08066077297275
H         4.82892349111647    3.76414611985363   10.48733602571566
C         4.57554003976924    2.42598974943299   12.13865218496109
C         5.35816077395007    3.12017009661690   13.05484618517761
H         6.06635628732647    3.85404700287192   12.69687661480279
C         5.22114590310475    2.88060280846840   14.40955684287959
H         5.82951250530797    3.42466605327109   15.11605539147789
C         4.30252087257123    1.94576094941404   14.85952210547284
H         4.19375188523357    1.76001148025270   15.91752114771195
C         3.52230056042557    1.25133503081841   13.95168059854254
H         2.80513101127337    0.52270611284674   14.29940384951226
C         3.66097874543607    1.48793780566018   12.59423123393747
H         3.04943835712153    0.94436873018202   11.88763808387571
C         6.30519475125525    1.39424042727241    6.62618643861702
H         6.37627616490653    0.31682524095785    6.55069762684654
C         7.38708669043182    2.20742109529750    6.23087381043865
H         8.29834624724505    1.74623326124741    5.86669609933755
C         7.27362144930354    3.61208742516407    6.24809550258087
H         8.08556477074793    4.23057584516283    5.88302211320643
C         6.05953503694598    4.20973082323846    6.67119903413387
H         5.95382695707282    5.28857503717505    6.63811398574370
C         4.97149116583559    3.41379238384963    7.06320192497701
H         4.02350490729293    3.86991303800195    7.31893844560696
C         5.11849284772035    2.00406503954315    7.08741780532748
H         4.26578069755443    1.38366661621189    7.34525778503960

