33
CSD_code = HIBRIT | q = 0 | S = 0 | Stoichiometry = C8H14Cl2N6O2Zn | MND = 4
Zn        6.11834591767756    2.87951940236183    1.82510592166064
Cl        4.87191465615818    2.35287804785918    3.60655584898496
Cl        5.01589520241225    2.61908621170534   -0.10384686347993
O         8.27163765815552    4.48011631910216    3.40198565123689
O         8.95988240566867    2.96149131945447    0.56351061553220
N         7.98840799983664    6.35830383163070    0.48956844056774
N         9.54222887945818    1.19216028176942    3.49978972884962
N         6.13140223029005    5.33432830359951   -0.53833124609964
N         7.34195822110589    0.84912595508543    4.27212453267450
N         6.91014981033613    4.73919417153339    1.58213067459864
N         7.83706976791041    1.86687628542506    2.22892061662556
C         7.97607014174452    5.03230139823428    2.36939928494074
C         8.94386478235601    2.30682233255258    1.57818313467847
C         8.76082713612429    6.15854761973462    1.68659183487341
C        10.16599169199308    1.86211863486937    2.38989355040059
C         8.42553482167287    7.18112930506442   -0.60670337802390
C        10.26117958389666    0.77096281855987    4.67262603503494
C         6.98784108057889    5.46078363507133    0.45601815399270
C         8.20688354847535    1.30083201782847    3.38550226214905
H         6.32741082582862    5.77846274332262   -1.41908402815226
H         7.66417931944090    0.58487390651592    5.18742913666193
H         5.55212273322555    4.46999959879469   -0.53751131732861
H         6.36308296204752    1.18714741410533    4.17126935833943
H        10.80780479526945    1.19478235023030    1.80781084797515
H         9.84819163035937   -0.16408474681488    5.05251465898801
H        10.74481766694442    2.73301226522227    2.71107706464537
H        11.30017581822821    0.60051014502447    4.39874836643942
H        10.22352586353194    1.53052263545890    5.45943254591061
H         8.79654228125678    7.05384055654444    2.31378135778008
H         9.78050049654414    5.82999085429992    1.46530345845189
H         8.93028932744649    6.58840587208260   -1.37545989146053
H         7.57573132311124    7.70063565272112   -1.05059498518926
H         9.12093942103655    7.92532286099979   -0.22484137246966

