66
CSD_code = HIBVIA | q = 0 | S = 0 | Stoichiometry = C26H32ClIrN2O4 | MND = 8
C        11.88308223727851    4.65276000765684   12.43820796686706
C        13.21639161067799    4.96127069003336   12.70176642794890
C        13.61363163110345    5.46439796100478   13.94406737954756
C        12.64697455533942    5.73131005830857   14.93742333049230
C        11.31562850402842    5.48847939040227   14.66588386311378
H        10.53041565321111    5.70464042193376   15.37251941491733
C        10.94893585409259    4.94451887166674   13.43584393875058
C         9.53671815770548    4.75433976237159   13.09384773647052
C         8.22483839151098    4.04365161522992   11.22171176834761
C         7.98099538206962    4.52480251686508    9.91293255448275
H         8.78232081189153    5.07960206057327    9.44573508317889
C         6.77216268702670    4.34842560749237    9.30749657234083
H         6.58503811350863    4.74991500652268    8.32423676195020
C         5.75628769179967    3.65458877400178    9.99332005726997
H         4.78337481789899    3.51370696102666    9.55381532595619
C         6.02770760290668    3.15718438018713   11.23017354060423
H         5.28966212744258    2.60460546147820   11.79252041095044
C         7.46994564529908    2.66458310543273   13.09395839882035
H         8.49416407520018    2.28842102321811   13.11572986317206
H         6.76969682220488    1.84181733818272   13.22606340846767
H         7.37003729627223    3.38192520620241   13.91400065575694
C        14.53534504734019    6.00882726364350   11.08222360716883
H        13.68283946792570    6.45115860208797   10.56133903335875
H        15.31864750389792    5.76541643331927   10.36588685689932
H        14.91969674298051    6.71854578837817   11.81986262146914
C        15.87769041702454    4.76784890570140   14.07939448153298
H        15.66108521099331    3.92273129017829   14.74169441090297
H        16.82959775970715    5.21454627837171   14.36194273482796
H        15.92945139608674    4.40923459529874   13.04921555639080
C        12.20182207821645    6.61590071360447   17.09101064157762
H        11.52281584662807    7.38729337795685   16.71444094866924
H        12.79192813114122    7.02208073902640   17.91122446474063
H        11.61508783654377    5.76474834552823   17.45347688567318
C        12.50168397640518    2.02634798472630   10.62290200390668
C        12.59389968637700    2.79521367528392    9.42016426422368
C        11.33041023627874    2.67206820279165    8.71792571925410
C        10.45631422232695    1.93198307038600    9.51656717307910
C        11.15301065580138    1.58096327781389   10.73924802944256
C        13.63419152942586    1.63803423690283   11.51778921370913
H        14.13806146356739    0.76032909537226   11.10812164999845
H        13.27752765234056    1.39639128962408   12.51586160869947
H        14.35338660737059    2.44738082996535   11.59604450249908
C        13.85027778695865    3.29864316252000    8.78583275176363
H        14.61166007611117    3.47171238210031    9.53955430910704
H        13.66482001760384    4.22994426924161    8.25534177758701
H        14.22419276351160    2.56306876006888    8.07003649233335
C        11.08980081855110    3.20743301079254    7.34420272050474
H        11.78148964617928    2.74763905749842    6.63718201554062
H        11.25437429033692    4.28476837133340    7.32467202253422
H        10.07300124556359    3.00683526200019    7.01497196604291
C         9.09392544605388    1.44608914280877    9.13284061848401
H         8.59413048955204    2.14909008772563    8.46884131694693
H         8.46022545126097    1.29693867628720   10.00583366163312
H         9.17650615154664    0.48839456011950    8.61401441324614
C        10.66381240175005    0.60447138388504   11.76445574946419
H        11.07604809703062   -0.38583562668593   11.56023735512716
H         9.57876613446205    0.52288817966727   11.74973470208493
H        10.97746057924996    0.89764441674809   12.76534148779806
N         7.23052219360927    3.31339700061507   11.82806958783095
N         9.40359754836691    4.26604247211667   11.80819012244413
O        14.15917387642143    4.78311141647706   11.69587441643228
O        14.91433584274001    5.78968910058176   14.24297209552200
O        13.13150246466420    6.22450312907206   16.11233410721272
O         8.58346319845577    5.06928576341236   13.79353668563007
Cl       11.10495881325747    5.95799409513302    9.80466803147521
Ir       11.16175152990832    3.81626171073174   10.73327072581341

