70
CSD_code = HIBVOD | q = 1 | S = 0 | Stoichiometry = C33H31N2P2PtSe(1+) | MND = 4
Pt        8.42687485972445    2.99004502669683    4.51630098489706
Se        8.40742948243661    0.65672799017110    4.04669991344539
N        10.29128276011863    2.64301715109260    5.22183303459536
H        10.89055275923523    3.37935317622049    5.57979281006611
N        10.14863360554774    0.43318066603091    4.71061862145673
H        10.53253865751273   -0.50009211746108    4.74122441361598
C        12.20551643209220    1.22241005420064    5.70439537040619
C        12.66393612646026    1.92493011037617    6.81805083157744
H        12.00788816422385    2.61401305793650    7.33194129572790
C        13.94534016035514    1.71518060829581    7.29177571479360
H        14.28879502473094    2.25546978012971    8.16053360058808
C        14.78415356628746    0.81392653139756    6.65649399396384
H        15.78477236649742    0.65448578596063    7.02665806433605
C        14.33672206209744    0.11785390634192    5.54535420746627
H        14.98910518665804   -0.58096021641643    5.04511309437797
C        13.05316689350379    0.31498300890765    5.07132111491492
H        12.71991913130183   -0.21453129870665    4.19047864770370
C        10.83925747271311    1.45125211558749    5.20040539832370
P         8.57752972101997    5.26242838534791    4.88233807507948
P         6.29358571537146    3.47312590924178    3.88062264699926
C         6.86420926206361    5.95353740434448    4.89370245949714
H         6.38252658671529    5.69348873434543    5.84135819924134
H         6.89927640217429    7.04327001105242    4.79990463390079
C         6.10983321327894    5.30829668236119    3.73536118031182
H         6.54945813707171    5.62440185120223    2.78341511061337
H         5.04899336513360    5.57639366944921    3.74742962390505
C         5.19559224617235    3.07678072718814    5.26576150738024
C         5.76983007960976    2.75772886204919    6.49256564390640
H         6.85696496724519    2.72197472997794    6.57793201012792
C         4.96448263010643    2.47782822137278    7.58087503957328
H         5.40766675479313    2.22715226381715    8.53266933137489
C         3.58565722817475    2.51282948428539    7.44346799220764
H         2.95548251287154    2.28988276750626    8.29061511169001
C         3.01121517278698    2.82538510846643    6.22051543498438
H         1.93698782749260    2.84464278090475    6.11828516144415
C         3.81131094699755    3.10826481406381    5.12878185646762
H         3.37049539460263    3.34207701804348    4.16928520851461
C         5.47609841103968    2.75169088174012    2.43741201724021
C         5.00851759106189    3.49426646416892    1.35894567065159
H         5.11692666041016    4.56819798313306    1.33971795309367
C         4.39507856673865    2.84803881483074    0.29891528262771
H         4.02903753290140    3.42502676491725   -0.53683590771376
C         4.25130083952191    1.47079339707584    0.30679688436141
H         3.77294828616378    0.97491603412264   -0.52354855698364
C         4.72567997193867    0.72684906717051    1.37740135077828
H         4.61875312245125   -0.34666385240946    1.38261781109701
C         5.33864995146148    1.36399972242115    2.43765068933071
H         5.71744730548384    0.79286372636714    3.28052895911342
C         9.28854444815904    6.03223389336049    3.40550746497656
C         9.50328332088426    5.23191901318507    2.28730225313248
H         9.27573685922570    4.16626458346625    2.34234107281615
C        10.00371809241050    5.78856768207067    1.12450031080974
H        10.17083431444562    5.16888210522129    0.25682029894433
C        10.29238469842133    7.14344217348486    1.07917386528857
H        10.68635934669347    7.57900506840113    0.17395046893595
C        10.08112156408025    7.94276640908291    2.19306550542452
H        10.30995975434142    8.99672046326953    2.15230107296276
C         9.57835417184025    7.39298199993951    3.35775357563221
H         9.41803951246952    8.00941213116782    4.23195131115495
C         9.46291198320343    5.98822115720827    6.28122076070659
C        10.84573763553073    6.13917542244071    6.17441770805108
H        11.33755618108242    5.90691210713743    5.23786079684046
C        11.57718881721672    6.60403991608699    7.25091662055811
H        12.64591912468140    6.72722537538321    7.16182173561343
C        10.93729812101396    6.91197261311392    8.44182642027015
H        11.50846328221422    7.27714431352087    9.28115590667013
C         9.56605205320614    6.74832569373403    8.55662408235490
H         9.07012146643803    6.98470267358363    9.48562981179605
C         8.82760606606841    6.27810219042451    7.48528294040485
H         7.76088807202439    6.14096924944686    7.58559652360384

