61
CSD_code = HIBVIY | q = 0 | S = 0 | Stoichiometry = C18H30N6O6Zn | MND = 4
C         4.87642631240269    5.30656133673196    8.58855298874226
C         6.05928239050404    4.37757086920725    8.45315070526225
C         7.04143783469938    4.81702986389162    7.37671366297185
C         5.44312041951047    6.55751498596922    6.65433969939227
C         6.80019755755406    4.26971535517393    9.79722472926533
H         6.09236785019811    3.93897715213549   10.55603585065152
H         7.59479287614484    3.52965431727834    9.69319428590167
C         7.39548333896659    5.60913419546491   10.21726280255101
H         6.61325782888748    6.36163083574369   10.30529459351070
H         8.13038238266153    5.95170298226205    9.49154649657257
H         7.88876688317046    5.51165043606937   11.18139437888873
C         5.53321155758943    2.99676584414969    7.96977981547454
H         4.94696811739384    3.16192594600035    7.06112955274730
H         6.40355050709854    2.39112533754394    7.70612394504838
C         4.67946073823181    2.25876960295615    8.99067493855495
H         3.89813594214586    2.90954364500218    9.37474246520556
H         5.28184091592904    1.90315985210818    9.82196188054793
H         4.21504555472518    1.39866096958084    8.51436809372233
C         2.58949674598432    9.55359341223804    9.17692425980662
H         2.89559974459434   10.46921978445302    9.69469445987747
H         1.49874383612345    9.52436275005895    9.13548349615886
N         4.64233617995395    6.27031863261095    7.69755557325785
N         6.61924495943134    5.82044893669301    6.54569887421601
H         7.24192113537846    6.08122946522359    5.78797722075819
N         3.04176370268237    8.34829457241005    9.86866085312287
H         2.37577479147966    8.11411658590493   10.60931126307901
H         3.95010684053530    8.49783256223027   10.29515904750675
O         4.06195316827158    5.20423082117774    9.51216435992962
O         5.19332547625554    7.43560354979486    5.85003270927082
O         8.11746026743144    4.29288292692823    7.21720551154863
Zn        2.86615767775354    6.74285614070351    8.46379377231496
C         0.85589567948975    5.30654751900840    8.33904994861163
C        -0.32695603874163    4.37755232656780    8.47446365014284
C        -1.30911681800257    4.81701952038186    9.55089289798328
C         0.28915568537048    6.55757291718519   10.27320366715461
C        -1.06787400863351    4.26969076282767    7.13039035104620
H        -0.36004452219268    3.93895323603884    6.37157862842860
H        -1.86246555807664    3.52962612311285    7.23442509052223
C        -1.66316678765164    5.60910573349154    6.71035012779367
H        -0.88094506073832    6.36160560956691    6.62231222082337
H        -2.39806423434160    5.95167447125598    7.43606817201029
H        -2.15645424768178    5.51161638554396    5.74622112016931
C         0.19911419031028    2.99674965045491    8.95783912119583
H         0.78537310390665    3.16191547714994    9.86647849974797
H        -0.67122454924791    2.39111797468582    9.22151588022715
C         1.05284375337824    2.25873546601473    7.93693930767453
H         1.83416922908955    2.90949868442830    7.55285499029540
H         0.45044862387308    1.90312282289702    7.10566447034925
H         1.51725712849872    1.39862702718212    8.41324842805252
C         3.14286628076045    9.55361276862858    7.75073506352811
H         2.83676514676345   10.46925538058248    7.23299266797045
H         4.23361930088500    9.52438051160058    7.79217643907232
N         1.08995722919199    6.27034820335885    9.23000845580453
N        -0.88696072670354    5.82049589887807   10.38185644859243
H        -1.50964539246294    6.08128983812192   11.13956648202906
N         2.69059332314676    8.34833575455537    7.05896376982797
H         3.35658427688005    8.11415843931882    6.31831320694980
H         1.78225713533161    8.49789695355393    6.63245923487517
O         1.67038989910743    5.20418472663497    7.41546084399628
O         0.53893171121675    7.43568940715404   11.07748577913699
O        -2.38511728641536    4.29283674212396    9.71043275013108

