83
CSD_code = HIBXOG | q = 0 | S = 0 | Stoichiometry = C40H33NO3P3ReSe2 | MND = 6
Re        0.68242842625868   15.38304938411321    5.20419049262467
Se        2.11574528423979   16.19738119269595    7.27994009674219
Se        3.01188805771366   14.79700515480056    3.94843161958360
P         3.19998580717184   17.88676559792742    6.45123602260024
P         3.77510347681615   16.81558813789540    3.72564139388409
P         0.82407347329014   13.10625664255098    6.07255469276179
N         3.89008528204673   17.79294612305996    4.99925042306782
O         0.65501809555206   18.32666032310454    4.24497414688006
O        -1.97155198716664   15.96913203303689    6.69011138313441
O        -0.70875076726473   14.43248119368302    2.60750234263201
C         0.70671963975287   17.22794061416216    4.57852934292882
C        -0.98854538999721   15.74111420075986    6.14179818653706
C        -0.22184670851201   14.77610349620170    3.58912074976153
C         2.18907519368947   19.39660633474665    6.53844348105385
C         2.26933756793375   20.35437870244316    5.53865313715146
H         2.90336898951004   20.17879543898418    4.68138949198385
C         1.51426462353443   21.50776742702383    5.64164581902052
H         1.56445323477859   22.25369565817741    4.86190924179869
C         0.68932585767713   21.70211207727983    6.73787823069042
H         0.09600411402974   22.60183092199363    6.81143698182230
C         0.61534516310494   20.74427665053528    7.73677403667719
H        -0.03294687280179   20.89554291271737    8.58734489178023
C         1.36695442434023   19.58859392851958    7.63926337158316
H         1.31330109102019   18.82204879995108    8.40305971583247
C         4.57542993611138   18.25737788448670    7.57853015712457
C         4.70981462182367   17.67113395480176    8.82612653166813
H         3.97756782108817   16.94277022096044    9.15471366415151
C         5.78147545068753   18.01417222834656    9.63174850666224
H         5.89130023369613   17.55666886272239   10.60396624410964
C         6.71167693491612   18.94079463099606    9.19088925460116
H         7.54830795171287   19.20566449874618    9.82074816737195
C         6.57325735619270   19.53004644712067    7.94334450405076
H         7.29972240451246   20.25333451846755    7.60222441265117
C         5.50326801698477   19.19278559871178    7.13658227487559
H         5.37826885719939   19.64068478520889    6.16022100067165
C         2.92847450745801   17.69508544066377    2.37232403990991
C         3.37517314355996   18.98094800558124    2.09511244512006
H         4.20252730712250   19.38566375335126    2.66380530992977
C         2.76062119869873   19.71733938896432    1.10112095136004
H         3.10028539238365   20.71959192791784    0.88308828166285
C         1.70716892352886   19.16868745327814    0.38534451954848
H         1.22383043179321   19.74832965678283   -0.38740437559664
C         1.27225429885031   17.88228350336120    0.65607890086595
H         0.45253182074594   17.45520618546491    0.09764794115383
C         1.88395143833452   17.14082484025848    1.65117278754073
H         1.54604720809343   16.13504987683204    1.87239518726485
C         5.46949096463159   16.63025264851845    3.11891746873602
C         5.65549086080713   16.08219167569152    1.85613633017355
H         4.79096677048064   15.79433453176768    1.27136978123797
C         6.93650101429427   15.90684521002406    1.36970320370084
H         7.08856404285106   15.48209887423035    0.38829176316248
C         8.02598421235168   16.27530255943354    2.14479605131414
H         9.02710614175114   16.13773362134256    1.76308681428070
C         7.83680586911867   16.81349003398203    3.40706167589335
H         8.68864467744326   17.09264061650195    4.01012293502843
C         6.55598960065173   16.99059057424875    3.90010535523113
H         6.38804501331774   17.40370864183582    4.88513534069604
C         0.44685636503607   11.90254825254004    4.77429627301376
C         1.43226419027374   11.19313442453411    4.09940527988939
H         2.47093762295933   11.29820853631592    4.37914670308152
C         1.07978932205118   10.36213891688424    3.04931639248390
H         1.84632289768166    9.81170781540600    2.52338909453913
C        -0.24524577774902   10.24222924913874    2.66741379621743
H        -0.51338312590132    9.59280315093716    1.84706339381041
C        -1.22798557161481   10.96753749549136    3.32487830104548
H        -2.25964728634887   10.88796341588373    3.01547072200149
C        -0.88368179718086   11.80389983424553    4.36766017719847
H        -1.63587299250403   12.39622805988346    4.87682271386416
C        -0.26064777447361   12.66215593472257    7.46065029317574
C        -0.86374776520508   11.41514552550611    7.57212579203277
H        -0.73419932429012   10.67884534567570    6.79099786019068
C        -1.63500818346170   11.12436696250723    8.68299644295415
H        -2.10883816978983   10.15701256187655    8.76672442682004
C        -1.80036227429879   12.06662178155122    9.68505328287753
H        -2.40785075286087   11.83449701350190   10.54734278699245
C        -1.18582637297855   13.30441319919098    9.58390076755911
H        -1.30822162464578   14.03817725737531   10.36644406065121
C        -0.41742213641976   13.60133739142497    8.47478164350360
H         0.07160264389420   14.56831401810213    8.39034421707121
C         2.43192378185483   12.59142156567972    6.76177613469891
H         2.39700891350237   11.53063974178827    7.01666246300419
H         2.61001172033579   13.18871220726535    7.66026560065462
H         3.22954297253949   12.79273474552344    6.04368466195050

