49
CSD_code = HIBXAT | q = 0 | S = 0 | Stoichiometry = C18H26N4Pd | MND = 4
Pd        3.04544911227894    1.90149678483536    0.74478854689546
N         4.86992589437363    3.02578798700227    1.30825403539200
N         2.42765920522341    3.08922056191633    2.51042493509953
N         2.89562393208650    5.52586317776948    0.24462448466862
N         4.58328053344497    0.93603350235717    3.92238711310551
C         3.79173840839490    0.88931224183678   -0.86092293700110
H         3.75002788153561   -0.19784380477974   -0.73770230701370
H         4.84846937922999    1.18426857218307   -0.95566565715325
H         3.28175132680465    1.14204660940277   -1.79639361877076
C         1.27814395197052    0.95061741268864    0.38017041140601
H         0.87895525212562    1.14993439627793   -0.61960506421519
H         0.55693385207335    1.33123104966466    1.12024241389739
H         1.35251864716226   -0.13553084819216    0.50274365555716
C         5.62064213071556    2.55575736947899    2.30162589849495
C         6.56838554531771    3.35731843540420    2.92928500433617
H         7.19640906226285    2.95316611864181    3.70774943239662
C         6.71182495877408    4.67201606558538    2.51763297089957
H         7.44620068758055    5.31401731497251    2.98208391705158
C         5.90954430524976    5.14882998404054    1.49421834917371
H         6.01630018553432    6.16143935480711    1.13785872107190
C         4.98267802550199    4.29108319238315    0.91129326174367
C         4.03927262823330    4.74062038208885   -0.18499186002101
H         4.59138954858719    5.34828002212866   -0.91073648497299
H         3.64936159048445    3.83452918142792   -0.68930283156901
C         1.82608931939714    4.79888881652547    0.90541027800315
H         1.62529633355237    3.88785474568327    0.30771769596321
H         0.94070949552097    5.44434562068205    0.88783524830663
C         2.10138626521545    4.36694056826760    2.33079803689743
C         2.03863270306105    5.25161061991367    3.40229393225613
H         1.73793148798153    6.27605391793199    3.24799166818490
C         2.33935737551146    4.78763897536317    4.67219706943978
H         2.28960211191427    5.45094564604477    5.52350988345727
C         2.69303912595128    3.45875140581846    4.83761982610176
H         2.90895266450483    3.06513122812393    5.81852837883464
C         2.73696919276196    2.63069885473895    3.72095017442750
C         3.15596182233677    1.17776924823971    3.80496459011771
H         2.67910757436259    0.71299288031904    4.67523708252227
H         2.80764712702855    0.67045756720224    2.88380971212205
C         5.37026330517630    1.12050556558519    2.71571861928959
H         4.83211223820101    0.61767975771550    1.88810792877577
H         6.33058603386666    0.61862757101739    2.87926471398032
C         3.21288527890041    6.80911233902798    0.81981767630646
H         2.29169337125139    7.38406952180246    0.91959385830308
H         3.87437325760687    7.34351723422921    0.13718380246497
H         3.69924217607654    6.75684632442058    1.80622980223850
C         5.19150163592461    1.42894855650791    5.13290691342080
H         5.25591621617342    2.52639224804953    5.19418402386906
H         6.19935093914023    1.01954560507075    5.20882948644575
H         4.61390690363260    1.06948011778650    5.98503720779625

