76
CSD_code = HIBXUM | q = 0 | S = 0 | Stoichiometry = C35H31NO3P3ReSe2 | MND = 6
Re       -3.12563517407299   14.20063526826761   13.90064499063039
Se       -4.97316506287428   13.62132247912420   12.03908938151841
Se       -1.42192994195391   14.69305130013768   11.87386465656799
P        -4.06892889397981   11.80281017601862   11.27448653514031
P        -1.25267708122709   12.71275989046582   11.00398201209417
P        -3.92684296540371   16.49886186331820   13.71056127433605
N        -2.58081312579664   11.86466215433044   10.66099000410420
O        -1.98156402186438   11.33117569330211   14.08945258163524
O        -5.21926289594278   13.52813133592910   16.07902565743593
O        -0.90623958407745   15.05890886067425   15.88224320530412
C        -2.44118356685393   12.37803500413419   13.96332756839977
C        -4.43090193076093   13.79140648470646   15.28531029009287
C        -1.74314522651291   14.74066403351311   15.16483860740634
C        -4.22968616649646   10.44642847412581   12.48309561944750
C        -3.53302169797302    9.27536866859242   12.21655619834545
H        -2.92867306297730    9.21073282761735   11.32250754895078
C        -3.61183028361588    8.21975812009119   13.10386458492893
H        -3.06528386146893    7.30890136345895   12.90736795697268
C        -4.38640869429000    8.33336743069151   14.24809694388541
H        -4.43895670386386    7.50977263182671   14.94497480171402
C        -5.08867166380864    9.49905920861146   14.50449787745831
H        -5.68893778755347    9.58797471390109   15.39778665930927
C        -5.01304483938469   10.55993954928354   13.62038147710804
H        -5.54901083685881   11.48025365994820   13.81982376223313
C        -5.09268428662244   11.24003907312657    9.89080556708303
C        -6.47475635984571   11.28448149462679   10.01431389492638
H        -6.91291673828783   11.69512966643835   10.91538645003794
C        -7.27037685098954   10.82363569532160    8.98270092024258
H        -8.34597332062712   10.86168017579367    9.07234665162849
C        -6.68582431384689   10.31500234194518    7.83307566707359
H        -7.30841220059334    9.95696652961101    7.02623833959281
C        -5.30651720099299   10.26658861499060    7.71427134359679
H        -4.85390268038107    9.87046894774637    6.81673418431658
C        -4.50535336386430   10.72595371999356    8.74432649808635
H        -3.42806227384736   10.69759670267639    8.66627685443588
C        -0.07291566955070   11.68293493720275   11.93393061489178
C         0.05034808545254   10.35630325175007   11.54329279752985
H        -0.54025371510510    9.99361309390313   10.71298945844025
C         0.91925063627318    9.52406445266657   12.22205472596121
H         1.01598078759370    8.48918672294606   11.92729218954453
C         1.66309174543659   10.01750907599017   13.28285897657663
H         2.33699794231343    9.36346001861812   13.81658201912577
C         1.54353569656733   11.34345617816087   13.66452678465255
H         2.12143456363099   11.72572861452482   14.49293829384541
C         0.67337534236308   12.18063246544189   12.99015699253992
H         0.56287476769412   13.21640910655156   13.28995548224696
C        -0.46126776744909   12.97411315659760    9.39846495894119
C         0.91467755396228   13.15126893287912    9.33658207387129
H         1.50237830973757   13.09224010244018   10.24331389181660
C         1.51662176521959   13.39992953289922    8.11726649107395
H         2.58700338362497   13.53433817896399    8.06263063926985
C         0.74657365018732   13.47831760217314    6.96725859899951
H         1.22006744182458   13.67134901521575    6.01576561312762
C        -0.62779296498639   13.31682770676040    7.03443517897459
H        -1.22641705789505   13.38827291502936    6.13794569206386
C        -1.23582866605684   13.06932600438139    8.25168610349023
H        -2.30788547773331   12.94946388950598    8.32472552878968
C        -2.87299138809540   17.72707149132792   14.52803005511778
C        -1.55097093281918   17.79706446433387   14.09375044686934
H        -1.21326499680844   17.13550337777818   13.29988229131734
C        -0.67342064994496   18.68980897085201   14.67520315941766
H         0.34984519520187   18.73966379483277   14.33421128911555
C        -1.10790817086361   19.51321632506425   15.70241841408564
H        -0.42233236322411   20.20919004247616   16.16284788491351
C        -2.41708328664707   19.43719735188273   16.14577203832915
H        -2.75196503736168   20.07301824459853   16.95254482313818
C        -3.30199163578182   18.54503562446595   15.56466636086942
H        -4.31854881453863   18.48593481222522   15.92416867136578
C        -5.61472645747431   16.76053145395966   14.34270237890637
H        -5.92337081649378   17.79514068974945   14.18928139353214
H        -5.66061730378283   16.49739746415815   15.39984100251020
H        -6.27461779087949   16.09018644322607   13.78516227896371
C        -4.05955165480667   17.17936798151944   12.02441232936815
H        -4.76313261056002   16.56466650506867   11.45807785586797
H        -3.08315146476312   17.14061216998675   11.53770107452861
H        -4.41225551408661   18.21062368358496   12.07602657996611

