108
CSD_code = HIBYEX | q = 0 | S = 0 | Stoichiometry = C53H44NO3P4ReSe2 | MND = 6
Re        8.62465851145427   10.22436151331770   13.25010361416815
Se        9.12810911182906    3.81809430003831   14.46944034375969
Se       10.83904665736729    9.49702477182354   14.63689919140818
P         9.56040028626396    5.34102969386263   13.07608225142781
P        10.49939219701782    7.36456956901488   14.82604252140298
P         8.52588089312226   12.11508717834765   14.76502081537959
P        10.09630580587242   11.74248556166121   12.03877991847187
N         9.55214902864351    6.89508648336904   13.62038422637011
O         6.95455384663533    8.39085876356297   15.10721604538401
O         9.34546775270346    8.28003075723522   10.96138073681661
O         6.01543273631486   11.11791436262598   11.83546751008349
C         7.59079766937979    9.03537530478751   14.40926668615539
C         9.04859599631986    8.88360633081883   11.88557360663105
C         6.99375822755669   10.78158793915462   12.34107464123072
C         8.30931248855711    5.38071458840439   11.77131072155863
C         8.36141062551549    4.41477233520791   10.77501726516548
H         9.18496495115817    3.71205726968547   10.76071069266114
C         7.36447666411034    4.36156977339613    9.81956038349600
H         7.40335482481030    3.61380272366143    9.04046721438410
C         6.31360658648566    5.26435267392712    9.86509792776190
H         5.53458231851758    5.22113045536820    9.11756187579197
C         6.25419402295070    6.21583573270804   10.87027918651025
H         5.43128728153973    6.91514855783791   10.91002407343490
C         7.24652658280878    6.27045034785882   11.83161026204271
H         7.21088567103939    7.01151044094283   12.62040741402091
C        11.14401835403717    5.02873587627570   12.21919603432564
C        11.63131571030848    5.97091420282736   11.32227866594228
H        11.06342487058989    6.86771138775546   11.12636204529131
C        12.84026155723599    5.75300465612769   10.69038046783226
H        13.22100790446836    6.48498926621814    9.99254044478516
C        13.56388892753148    4.59992292061301   10.95005963405321
H        14.50961421789832    4.43362027260788   10.45417128138773
C        13.07621949930939    3.66096542157647   11.84248113640239
H        13.63753706935580    2.76057845781219   12.04551171326838
C        11.86647222660188    3.87485118198698   12.47778953710355
H        11.47427786236963    3.14944425364046   13.17808031932030
C         9.82167147630095    7.08526778316188   16.48620383956050
C         8.58364680422389    6.49374322249512   16.67866278341067
H         8.01119280525231    6.15209954911322   15.82827573710366
C         8.10555263692824    6.32942556561847   17.96718852830410
H         7.14662989080793    5.85950012881588   18.12485014766742
C         8.85790339151826    6.75977444326686   19.04699847713107
H         8.48300497768495    6.62540404504230   20.05180789956857
C        10.09126597210974    7.36567189941667   18.84831625127893
H        10.67428844745839    7.70334421351109   19.69359799847713
C        10.57407121122196    7.53426193799856   17.56592948758191
H        11.52828723226697    8.01464010536136   17.38035555939505
C        12.12356594233341    6.55750800339177   14.81266849723617
C        13.12174858710613    7.03650607344730   13.97721246249239
H        12.96120106718918    7.95413966541256   13.42354298108750
C        14.30993818117768    6.34017812028125   13.86505603227920
H        15.09012416480988    6.70911575451102   13.21519198220846
C        14.49267723258038    5.16681816530393   14.57873552839323
H        15.41955234025269    4.61994393607202   14.48479921529655
C        13.49125527122859    4.68937962014501   15.40874227148823
H        13.63312604697027    3.77111125767855   15.95887593123818
C        12.30050578182246    5.38198775799522   15.52947674003464
H        11.50714519446557    5.01054100467728   16.16411798475812
C        10.32241791338798   13.30208109019531   13.01035947380858
H        11.32193639650734   13.71285992359371   12.83209290172580
H         9.57535174895451   13.99810370290005   12.60923043528290
C        10.07905752489232   13.06953293542254   14.49974845479519
H        10.04560945670003   14.00874073583252   15.06303230431152
H        10.87114137046242   12.44026901232968   14.93097387290174
C         7.15201321866130   13.26626732070975   14.47741703183870
C         5.88775910689393   12.68742498188582   14.58019461275798
H         5.81510533382325   11.62698661751261   14.79977279407558
C         4.75374843159601   13.45291318994642   14.40000365515607
H         3.77729300333131   12.99954643717002   14.47939580299287
C         4.87448645926308   14.80347207711892   14.11014066108667
H         3.99037040837255   15.40508937020599   13.96136786861716
C         6.12757895463840   15.38277657942522   14.00997948868157
H         6.21999007095262   16.43580960016169   13.78632910978587
C         7.26882251731666   14.62075301052005   14.19525560709372
H         8.23853041909871   15.09288341732067   14.12154631264303
C         8.47264412355071   11.96863491801477   16.57254535627852
C         8.57495976631069   10.72903250262337   17.18926362240938
H         8.70254985922835    9.83527566108198   16.59424276006500
C         8.52243771269550   10.63492272152900   18.56842366809964
H         8.60378127845772    9.66637404179055   19.03851572563913
C         8.36438471494706   11.77725775339450   19.33342433544534
H         8.32145088134830   11.70492464583879   20.41006732827574
C         8.25437993064944   13.01683690985214   18.72060217308143
H         8.12448075255097   13.90679892970825   19.31905700016170
C         8.30345050390428   13.11656089798701   17.34431900059814
H         8.19855559921181   14.08040756448301   16.86371749905987
C        11.76331294877381   11.10607277942206   11.71268185604781
C        12.81474591753020   11.26777394032977   12.60912432488674
H        12.68894099076838   11.86280493619181   13.50374123520801
C        14.02510400257776   10.64194266732557   12.36880243751520
H        14.83636559743090   10.76292856941960   13.07149058040532
C        14.18928277597444    9.84759737783349   11.24645009691892
H        15.13231040786714    9.35128090467119   11.07029500217488
C        13.14144792459675    9.68091844964259   10.35499935370427
H        13.26544458017859    9.06074526867564    9.47937368489866
C        11.92919354621811   10.30118609117890   10.58749165568270
H        11.10392987193623   10.16355173063217    9.90023685449390
C         9.64307367776630   12.36260764580796   10.39512002590227
C        10.33672276146199   13.43544782923613    9.84103191522547
H        11.13431074374593   13.90942620695330   10.39666544823506
C        10.01034879695986   13.88496314283583    8.57620510313657
H        10.54643662091163   14.71918672017896    8.14781604538877
C         9.00150994458548   13.26414367038530    7.85505909633158
H         8.75051883966016   13.61953896608007    6.86683734880934
C         8.32189058339848   12.18662238743299    8.39699046374306
H         7.54207656023386   11.69644468215029    7.83377995565277
C         8.64183657560461   11.73384608004112    9.66506418654641
H         8.11936528072443   10.88767582625094   10.09528773120499

