110
CSD_code = HICDAB | q = 0 | S = 0 | Stoichiometry = C41H64NiO2P2 | MND = 4
Ni        6.48965424415438   23.87252329728661    4.33609559103310
P         5.56147944458744   22.74125581151391    5.91579351934232
P         6.52168698034899   25.71144965899240    5.59428659692018
O         7.16539348235496   24.84948561503595    2.69862393282931
O         8.77342014427776   24.03653577558802    3.95081071144466
C         6.33450085863452   22.38442917167646    3.16809365484819
C         7.31165476755251   21.42250815146181    3.08563537416887
H         8.17310700916691   21.44494376820721    3.73834236562404
C         7.24027339105311   20.39429035322876    2.12893573048149
H         8.03354185167938   19.65982613096909    2.09519683810952
C         6.18907757658285   20.31194216092561    1.26181795414058
H         6.12804597044796   19.51211661519887    0.53711716075955
C         5.17130916857327   21.28547373054958    1.29278150115224
C         4.07002191414205   21.25375431754160    0.41140826857016
H         4.00778825331190   20.44519020315699   -0.30401990897247
C         3.10398049488681   22.21960462779893    0.44965505644950
H         2.26591575978707   22.18119919210014   -0.23168518935222
C         3.20002068312450   23.27753227857007    1.36732674885239
H         2.43992184054753   24.04633629509837    1.37477419496360
C         4.25147698322648   23.33044844686940    2.23696055037591
H         4.36299354375494   24.14872141889527    2.94224110900472
C         5.25602489442911   22.33978842966926    2.24304504010715
C         6.59214872204221   21.30074742629066    6.47010898398180
H         6.55105260032818   20.60443268659609    5.62153246125686
C         6.14212803631700   20.56721229738106    7.73195479142639
H         6.19940934090775   21.23484154896398    8.59480802251957
H         5.11125410340847   20.22179158759621    7.63915793808819
C         7.05043253302680   19.35895884599184    7.96609793725488
H         6.74379577106095   18.84034134546198    8.87746149483104
H         6.93785638835687   18.66229148699906    7.13199697399140
C         8.51376540931178   19.77878784955921    8.07544285887903
H         8.64227706151005   20.41723767421166    8.95313444670808
H         9.14053163014824   18.89532734354865    8.21274447769078
C         8.94814645024012   20.54326746730316    6.82747506023697
H         8.88447194660592   19.88672369325430    5.95708384448084
H         9.98607447882149   20.86543243471373    6.93002409411328
C         8.04445972825643   21.75432345264776    6.62614323479564
H         8.34774392754266   22.33089919562060    5.74696693162739
H         8.14204001432274   22.40193420076942    7.49992310004148
C         3.83047593612129   22.04940603141073    5.92624946029369
H         3.62770449402098   21.70656467379361    6.94989478395309
C         3.69047499665925   20.87247142077981    4.96295023994090
H         3.95941553942270   21.19689008879453    3.95721163094584
H         4.37064072875364   20.06777032860424    5.24860404402042
C         2.25814066856315   20.34454381130222    4.95282669889243
H         2.18118798799098   19.51795583318044    4.24415128894579
H         1.99910844090869   19.96186105581037    5.94398162849049
C         1.28610779937838   21.45383703413011    4.56837320414126
H         1.52493668763625   21.80835813956936    3.56344428913863
H         0.26363410950270   21.07089778405455    4.55976744063184
C         1.40262423442576   22.60948067066775    5.55566944981457
H         1.12988880299625   22.26106278284562    6.55564776040668
H         0.71115685294635   23.40895071925717    5.28097718025525
C         2.82981984345414   23.14905810180062    5.57291196934910
H         2.89998728356446   23.96468728557401    6.29694245437565
H         3.07348360210522   23.54416121152103    4.58596151799560
C         5.51374433230339   23.82997572918619    7.42916640052414
H         4.66786276251187   23.54731647094402    8.06345018605796
H         6.43012190197734   23.62836849581683    7.98680099030775
C         5.45148628900828   25.31389611674780    7.07154217426929
H         5.73605561515742   25.92897325097086    7.92942289163228
H         4.42796924461222   25.57518632461809    6.79174759472081
C         8.03498303646102   26.43859593915477    6.41279567605003
H         7.70516482813419   27.13424451843151    7.19671572306895
C         8.84695965619592   25.30898756886992    7.04460431254172
H         8.24830242932205   24.80188594869293    7.80481006588933
H         9.10008064055650   24.59213812044845    6.26042438740393
C        10.12841442470018   25.83210783208247    7.68547183868970
H         9.88026248593988   26.52542867797700    8.49487779990488
H        10.68735749653862   24.99953575203059    8.11839967234992
C        10.98059160960045   26.54952463228990    6.64611774571989
H        11.25761953485097   25.84298823132675    5.86144680152909
H        11.89753375280229   26.92813018637367    7.10341367606021
C        10.18568590051609   27.69692404540286    6.03462353154852
H        10.78725754417680   28.21115425872043    5.28144560218247
H         9.93743461552579   28.42340099927705    6.81408677395461
C         8.90035412148067   27.17906667524554    5.39422515366553
H         9.14970438558744   26.48560889272005    4.58954907492545
H         8.35516014662579   28.02274457815841    4.96537041232367
C         5.69399864429360   27.23662098406994    4.91206860035525
H         6.41445138234079   27.64808097784726    4.19372135206838
C         5.34106350857715   28.31339960604241    5.93619324840398
H         4.62896351385992   27.91885841209991    6.66406851703168
H         6.23229635765660   28.63752343861697    6.47650622901260
C         4.71238968057477   29.51761353682877    5.23630224357017
H         4.45516509756225   30.27923704088306    5.97624829252595
H         5.43682613578518   29.95462412706608    4.54497298317060
C         3.46672171623503   29.09870329164972    4.46217574561526
H         2.72379354692095   28.70092490823527    5.15828231050222
H         3.02768616592677   29.96665623943684    3.96595094212736
C         3.82195634662157   28.03166845940293    3.43149801925508
H         4.52210797008641   28.44993351077723    2.70500386589787
H         2.92575545796436   27.72096563213540    2.89019664885790
C         4.46140209654845   26.82355732147532    4.10858548286406
H         4.77811477105380   26.10565093396660    3.34795890538043
H         3.72472150998569   26.34426391763692    4.76020001433621
C         8.38720506937006   24.62374479592372    2.92263605895767
C         9.38894320820874   25.05268078963032    1.84298299615390
C        10.80985810681234   25.07677875745776    2.40041059594445
H        11.52641179397184   25.23053493809930    1.59588002835863
H        11.02916914000387   24.13488670288319    2.89635542976022
H        10.92772680053897   25.87969527329024    3.12526756381744
C         9.27107395996163   23.98767129530021    0.74542691604352
H         9.93124683982062   24.22677078037591   -0.08679605603196
H         8.24671983950926   23.93771783469874    0.38277711518675
H         9.54110597457652   23.00979815549126    1.13867346326808
C         8.99616063817585   26.42072353225390    1.28662977058233
H         9.62947637047864   26.67959459156771    0.43992590964409
H         9.10443188872867   27.19099247447776    2.04850223746910
H         7.95908430594263   26.40098153456425    0.96132759018754

