81
CSD_code = HICHOQ | q = 0 | S = 0 | Stoichiometry = C39H36CuNO2P2 | MND = 4
Cu        6.53939917172748    1.44351108824563    5.58859617715205
P         6.43700678273621    2.70641680897150    7.45591975028985
O         5.45245482614559   -0.32121954491239    5.68674476673240
N         6.53929326043246   -1.02387226033440    5.58795237170086
C         6.53832842306144   -2.31410935324695    5.58738570874571
C         7.82546466094734   -3.05943944876276    5.47791145748336
H         7.87099890528103   -3.61430916551393    4.53913652401247
H         7.92062982700594   -3.77604073987327    6.29414341096852
H         8.65627413106074   -2.35994655382350    5.51553388877163
C         6.62039194750237    1.71189667627956    8.97020317783526
C         7.33158871754143    2.13401874075587   10.08794811675395
H         7.80711462080941    3.10500534512182   10.09179945075314
C         7.43215058758748    1.30205429683774   11.18841551269228
H         7.98549111763930    1.62683858556231   12.05783764440136
C         6.83102574034977    0.05312442413598   11.17764003945108
H         6.91649970793488   -0.59198946017000   12.04005000489252
C         6.12730597570388   -0.37152736882591   10.06197888743720
H         5.66489500446412   -1.34765917376418   10.05293978642563
C         6.02411238633116    0.45337253107273    8.95709594623351
H         5.49083017469028    0.13392076514773    8.07029573922027
C         7.93733907582188    3.73719145443764    7.46881835377091
C         8.03393306665702    4.98710324353806    8.06998824592736
H         7.18293474177159    5.40541042748062    8.59005687593750
C         9.21949354686877    5.69648752662414    7.99152974124414
H         9.29302755099791    6.66886749189250    8.45756425763191
C        10.30915811555482    5.16575767396468    7.32045868050381
H        11.22997017343849    5.72730139665610    7.26008688722861
C        10.21772436410768    3.91826370754926    6.72359898354820
H        11.06483163101431    3.50686222526695    6.19523764078299
C         9.03499821363117    3.20769448372150    6.79372382395661
H         8.93997818612798    2.23745153044913    6.31818902227188
C         5.11692271701790    3.87847392355971    7.89611038767943
C         4.92319948565149    4.98047856612290    7.06412760736660
H         5.60531708546195    5.15059716541353    6.24172633513823
C         3.87202641037925    5.84732764025368    7.28386824491492
H         3.73470764211161    6.70114115749943    6.63631704649034
C         2.99028160493422    5.61500681182507    8.32832255006576
H         2.16571936715424    6.29103046648427    8.50024160412905
C         3.16472984235192    4.51105010364403    9.14635844362093
H         2.47427211217539    4.32535109974454    9.95653290407673
C         4.21811281567247    3.64050464462937    8.93092031844964
H         4.34899017558221    2.77709883479691    9.56818495935233
P         6.64052965429689    2.70622159697679    3.72126370043330
C         6.45727762171397    1.71144728704343    2.20712740353286
C         5.74556378405216    2.13290894118907    1.08945503634195
H         5.26946777054413    3.10360512563348    1.08550706871060
C         5.64512071600354    1.30058302054834   -0.01076910932552
H         5.09156772962862    1.62494264689313   -0.88022826700858
C         6.24688300676973    0.05196411943928    0.00015815731435
H         6.16170275592643   -0.59331681277231   -0.86215746641382
C         6.95107610506580   -0.37205118485077    1.11575171099940
H         7.41398134938177   -1.34794661562249    1.12492132966245
C         7.05415651168530    0.45319723546476    2.22039412067133
H         7.58769662478612    0.13413682116943    3.10720359038794
C         5.13999324779358    3.73672368709118    3.70813653147908
C         5.04326966803512    4.98666391465873    3.10701671205435
H         5.89428514324141    5.40517054474230    2.58712946489159
C         3.85763416615788    5.69593651620965    3.18546860524765
H         3.78400027507007    6.66831601641472    2.71945147066078
C         2.76799814748564    5.16505671997861    3.85644971257814
H         1.84704443305588    5.72639583061673    3.91660628489116
C         2.85954754957048    3.91753627554368    4.45323599740087
H         2.01242309779375    3.50600178446011    4.98146662318941
C         4.04235633914387    3.20709183218820    4.38315645352191
H         4.13751865372488    2.23693375639991    4.85880064399944
C         7.96014010028566    3.87853989589552    3.28042325791904
C         8.15401460254834    4.98055093229149    4.11237013312673
H         7.47221687008572    5.15048886325562    4.93506269255579
C         9.20508194039303    5.84747133228799    3.89235787446750
H         9.34242479328717    6.70138213667467    4.53978402595155
C        10.08658132325902    5.61521223222287    2.84767004083401
H        10.91081735477826    6.29150862383242    2.67531482147297
C         9.91195570208702    4.51129660161932    2.02962399391672
H        10.60210061089927    4.32576656500388    1.21914709745228
C         8.85865650213009    3.64069033001282    2.24531676955689
H         8.72777039582351    2.77719344072309    1.60817425540186
O         7.62670964404396   -0.32231506157588    5.48942536849177
C         5.24975695196941   -3.05730519072783    5.69541430170102
H         5.20278722851829   -3.61402147806800    6.63286683264871
H         5.15299925511997   -3.77203595369918    4.87789000198798
H         4.42026848037915   -2.35634009763092    5.65912148124322

