148
CSD_code = HICLAG | q = 0 | S = 0 | Stoichiometry = C71H55N13NiO8 | MND = 4
Ni        7.06874241914575    0.09046295160891   12.31317747801019
N         8.96793757244040    0.02513968009734   12.77091140268600
N         6.70509266832080    0.99068915946489   14.00179213189977
N         5.17733200621160    0.15587375625928   11.87169067378833
N         7.44446818069947   -0.83224169256773   10.63094981807749
C         9.94256262478944   -0.70820837091664   12.15444991852236
C        11.20147003687286   -0.52235779471021   12.81135745798854
H        12.11682886557977   -0.99804924295195   12.51947945583135
C        10.98960776094323    0.36120780751299   13.81425463178651
H        11.69367738917270    0.75186583637424   14.52290214262741
C         9.59551663906807    0.68833262066355   13.78700571411531
C         8.98641121858780    1.51137145259596   14.73007778174243
C         7.60353807097784    1.61083239617139   14.82202175156068
C         6.92424676951407    2.27372188308919   15.90065778740007
H         7.40493521560617    2.86782933992281   16.65373344688367
C         5.61342696963365    1.97694195636034   15.76895187568683
H         4.79155388038821    2.27404112233410   16.38956610201771
C         5.48866431095291    1.19490642775073   14.57380049266410
C         4.25971256219984    0.83302444732035   14.04011243951000
C         4.14108362356757    0.41259550539832   12.71936435537334
C         2.88728120038765    0.29531867706733   12.02959092068604
H         1.92146115129859    0.42419675398164   12.47706649596998
C         3.18136512002381    0.01471402200128   10.74117246287559
H         2.51052643413866   -0.14187077200521    9.91817322069488
C         4.60866401941093   -0.11391696923446   10.66288215760800
C         5.25511526741740   -0.61732822024929    9.54242450420548
C         6.58919746710105   -1.00831346401227    9.58201230575091
C         7.22602583346137   -1.74739765746211    8.53186388603033
H         6.76654682397307   -2.00429477535743    7.59847798624491
C         8.47145405763326   -2.04429325972888    8.96647075551955
H         9.24182596232361   -2.59593027427231    8.46345603390877
C         8.60905535191963   -1.44766749566383   10.26352344431984
C         9.79714754540390   -1.44888442666915   10.98706591909851
N        11.37434850109004   -0.44331224121559    8.87824851474627
H        10.42097281962013   -0.17371686718957    9.08665998309343
N        10.19013307847411    1.96020913805075    8.57428771689769
H        10.37321644407098    2.55926149884222    9.36365526566759
N         3.39912055891324    3.66080929393979   11.06536036515037
H         3.18296345726682    3.20123802066960   10.19598210708373
N         2.40436218041866    2.92809612391307   13.65953061725764
H         3.38271100909738    3.20720007702497   13.59709961042519
O        13.27222326290446    0.28345134020719    7.84035748100006
O         8.64619356704129    1.03325400960238    7.21976993798877
O         4.88029730312430    3.97483391565671   12.72517117059020
O         0.39842507778316    3.08900670747226   12.59270693088751
C        10.98274414801954   -2.18539701256023   10.48042613976311
C        11.36138242914403   -3.38035380219859   11.07703418158882
H        10.77264177856348   -3.75921380457296   11.89839838307460
C        12.48459016320805   -4.06187056695700   10.64132798267187
H        12.76425615714870   -4.99170072533267   11.11326128305140
C        13.24936331106363   -3.54389150029195    9.61057853652053
H        14.12848934663894   -4.06887474812405    9.26905526681974
C        12.89748850857748   -2.34678160775391    9.01425247273479
H        13.49836636176605   -1.92853075670441    8.22452589968593
C        11.76654563346394   -1.66242990355387    9.44290231649329
C        12.11145506181178    0.42612310278019    8.14996755562854
C        11.30283463138974    1.66081819016817    7.69805674792353
H        10.86253258454524    1.39031157641515    6.72744472914346
C        12.22097924077259    2.86580093469691    7.54284416590276
H        11.69672398842499    3.69120079279395    7.06803426525237
H        13.07504771751058    2.58386607781289    6.93429757250049
H        12.58884501422837    3.18716310582062    8.51583854444888
C         8.91125272860907    1.66947799332205    8.22151263785449
C         7.85123290949682    2.18181272148316    9.13551968819271
C         6.62949591484933    2.49748711546624    8.54942372591472
H         6.53837968410116    2.38330081833732    7.47933836687156
C         5.57445386227635    2.95612509930106    9.31138181762684
H         4.65315110578737    3.22881256260443    8.81733280995072
C         5.72011159920263    3.09267886680090   10.68876051848402
C         6.95085644417586    2.79096390380229   11.27796325541719
H         7.07002101897369    2.98803180831321   12.33513498906509
C         8.01349349878357    2.34124759646466   10.51005322653372
H         8.96285590309993    2.13370024595590   10.98521737271741
C         4.64434123732417    3.60395986986259   11.58069307530481
C         2.29621997698598    4.33540639120000   11.72972913209292
H         2.73521902911051    5.14361805307975   12.32903056020588
C         1.33079584092892    4.88995760265789   10.69480726043264
H         1.84495274893462    5.55876555375073   10.00864270824442
H         0.53640603510420    5.43535797144662   11.19544852511140
H         0.87509119178395    4.07427875932767   10.13775339889638
C         1.56693823283212    3.38147753165008   12.70363042335917
C         2.10054160997537    1.95679914413605   14.62942461226861
C         0.91857170698523    1.99228299300690   15.35537641858675
H         0.18374578302690    2.74852320513984   15.13154113314779
C         0.69811654301163    1.05961827609491   16.35378218022909
H        -0.22326515465739    1.08831724813454   16.91562793112305
C         1.66138561930440    0.10877884663818   16.64754022755278
H         1.49707154706742   -0.60010755765044   17.44510766236075
C         2.83273371096580    0.05866341851623   15.91190698937544
H         3.59042160002739   -0.68044753943694   16.12500886809055
C         3.04923577256052    0.96084031367579   14.87933486804355
N         9.12089917908469    0.67137943071224   17.41191682870761
H         8.41177090506269    0.44279501769037   16.72596815669076
N         8.23106769894624   -1.89485603748363   17.11309723809108
H         9.00579051534771   -2.51744243662329   16.95154710441258
N         9.02671415646442   -3.46796929851862   13.30958257773158
N         5.60804345532111   -4.61203218713386   11.17495196197528
H         6.44288068604372   -5.16823429084375   11.25833647144275
N         4.14235131847884   -3.14524004334573    9.14686126285837
H         4.19632393836883   -2.75245840929767   10.08690958138479
O         9.93519659756410    0.02055536363558   19.44721479264616
O         6.34644970929961   -0.95010169783460   16.32152648979213
O         4.58839072264782   -2.70480625054231   11.85628839029759
O         4.35285480328782   -5.08847865031325    7.97178490494285
C         9.84589339423651    2.20438203892284   15.71958738839219
C        10.62620379278549    3.28109606826284   15.32336049785055
H        10.57078543224915    3.61598598030827   14.29778892653700
C        11.46083906252759    3.92068569668371   16.22317725456824
H        12.05783156104857    4.76008034515107   15.90064794392082
C        11.52986318805827    3.47556984217091   17.53194873125355
H        12.18320746383958    3.96585490868289   18.23729879250627
C        10.76330993275652    2.40160634643178   17.94796656851861
H        10.81877172151713    2.04560172428533   18.96307590353397
C         9.91595898462258    1.76492172747203   17.05015784418507
C         9.18480478088596   -0.11775108106085   18.50990302149609
C         8.16042626870358   -1.27412719072687   18.42150788837323
H         7.15569228054178   -0.84008659194387   18.50556895148816
C         8.40014302860269   -2.29272542108870   19.52532555373135
H         7.64536444744411   -3.07415313229558   19.49430812110552
H         8.36214523982503   -1.79430852093069   20.48910495124759
H         9.38639230502070   -2.73913150808558   19.41725318007271
C         7.32254940892993   -1.65468628706590   16.13910806763798
C         7.58562456928827   -2.32711467908221   14.83264565478145
C         8.82799879331818   -2.82769940256806   14.44554213580764
H         9.72025106343436   -2.69953389314704   15.04578867134347
C         6.52664430127895   -2.47445028147031   13.93713038887149
H         5.54700709172990   -2.08917311064566   14.18707152104091
C         6.71931803280760   -3.20229714824361   12.76344844337835
C         8.00637864715575   -3.66551602066042   12.49635911463468
H         8.24975185764885   -4.19190301541846   11.58121020223165
C         5.54276621283353   -3.46705378241284   11.88537219803792
C         4.54191342404358   -5.19323352737191   10.36382253670484
H         4.85996474676538   -6.20996995245776   10.11379584169489
C         3.21303382279405   -5.25848938052234   11.11867579028380
H         3.32639424859886   -5.85311741769858   12.02292476747219
H         2.46352143221409   -5.72368782217887   10.48408737146025
H         2.87529417311930   -4.26399575740370   11.39595118192187
C         4.34007370169529   -4.47028658994055    9.01319840775895
C         3.97488846709463   -2.21258488708031    8.11398718583098
C         3.31724071159107   -2.53038110248038    6.93318470517162
H         2.96427120195945   -3.53687712271305    6.78067134449505
C         3.13071625919586   -1.56029488306960    5.96468375370868
H         2.62106984997460   -1.81347753539215    5.04757921693253
C         3.58564687232441   -0.27032447660310    6.17417552562447
H         3.43076238383280    0.48948687507147    5.42303930914224
C         4.25520221928544    0.04437816050479    7.34468526092481
H         4.63288291091695    1.04116334424794    7.50454120397713
C         4.47161096971609   -0.91830260922141    8.31751584123380

