80
CSD_code = HICLIO | q = 0 | S = 0 | Stoichiometry = C40H35CuO2P2 | MND = 4
Cu        1.64121568865116    2.43221300978398    2.26565661399536
P         2.07932771259752    0.27114782380836    2.12547769032074
P         3.13950823137147    3.94155960620578    1.36676065029613
O         0.96119393178795    3.62960544554981    3.80812848685379
O        -0.18063655188213    3.32737590664520    1.97244633289266
C        -0.02662228061964    3.88393151324704    3.08185808911886
C        -1.04406821102387    4.91660062905381    3.54766687489389
C        -0.38382121828387    6.25539800613041    3.54455113390925
C        -0.77237056091168    7.28308954384210    2.81326786222160
C         3.51851683283128   -0.84447022040190   -0.05860328686027
C         3.83218247602808   -0.91670829456373   -1.40396791677233
C         3.20571846952195   -0.08116674768805   -2.31405768207224
C         2.26012354893496    0.83344485041218   -1.88012880618318
C         1.94602572703133    0.91202382936576   -0.53667978312237
C         2.56977672541821    0.07091564869953    0.38099043926652
C         4.39287580351078    0.84178907770459    3.48075510954819
C         5.57960271119925    0.57872247093923    4.13882476610366
C         5.96905133934579   -0.73347957026926    4.35519937203165
C         5.16650487495521   -1.77651375977295    3.92046648107586
C         3.98095921443103   -1.51677076147486    3.25612965447385
C         3.59369610076256   -0.20077474876660    3.02257915572942
C         0.42865355011345   -1.90399209872378    1.37916030302439
C        -0.43611546861248   -2.94350439624278    1.67417067364731
C        -0.73795781493656   -3.24990771062074    2.99055251023408
C        -0.18018292661058   -2.50811858985932    4.02112151588843
C         0.68094158135789   -1.46757086492903    3.73391246157705
C         1.00557972086779   -1.17145786875045    2.41051030642476
C         4.95055016357798    2.37534018040064    0.02244738919110
C         5.65173086050244    1.89971999501059   -1.06676048550220
C         5.47810478048558    2.48471199447891   -2.31171065409946
C         4.60049108268712    3.54492589790245   -2.45892958090756
C         3.90024248892298    4.03022701355813   -1.36836609867977
C         4.08000132657285    3.45601817345100   -0.11606137645217
C         1.20495484635347    5.43448422138843    0.12449954176251
C         0.54911947122808    6.58505305303715   -0.26765980402556
C         1.04897343663268    7.82504664899776    0.09725114138416
C         2.20132885399664    7.91047611563686    0.86044003641888
C         2.86491103224563    6.76258924046339    1.25530214031609
C         2.37497800271029    5.51793000905144    0.87733285895294
C         5.75618169131940    4.77993966748522    2.10845930631741
C         6.68908672720353    5.16981566700538    3.05295044592976
C         6.33529329508242    5.26295596970365    4.38957662154934
C         5.04154478092846    4.96479602476810    4.78751230184077
C         4.10433594853647    4.56997034720164    3.85065223460638
C         4.45760122096350    4.47913547327193    2.50527922260898
H        -1.34529712587332    4.65371071726585    4.56499838949011
H        -1.90752041832354    4.89718364572502    2.88277680504857
H         0.48781791268602    6.33169727796419    4.18219977339843
H        -1.63112677128676    7.22476431461781    2.16469325501854
H        -0.25326876866946    8.22625028445426    2.83500316522015
H         4.01467074044944   -1.49252696308009    0.64958070866864
H         4.57039120529979   -1.62832186560383   -1.74466399341608
H         3.45740600998019   -0.14099378704998   -3.36252985704893
H         1.77489134742505    1.48788857171130   -2.58884590206647
H         1.21494432902134    1.62643100840958   -0.17503285177241
H         4.05781227687253    1.86137042109032    3.32655769277887
H         6.19411373070102    1.39586277870167    4.48775778728523
H         6.89342749789407   -0.94511318959948    4.87211959213305
H         5.46609884940380   -2.79876947183228    4.10128526385696
H         3.35016225343750   -2.33250416600685    2.93004647331621
H         0.66083081435379   -1.66265950718163    0.35123089472653
H        -0.87793502916352   -3.51626631648147    0.87164704137337
H        -1.41351667449833   -4.06221138724952    3.21460147456338
H        -0.42380486784287   -2.74012873488895    5.04767675778800
H         1.11501231692465   -0.87383063076303    4.52824319419025
H         5.07322777555482    1.91540203093525    0.99491681638486
H         6.33136270415381    1.06851884062393   -0.94835913893310
H         6.02474456063343    2.11177289777830   -3.16518631063108
H         4.46181883395092    4.00031340752248   -3.42898728705857
H         3.21916657292561    4.86080158697655   -1.48821499846427
H         0.80657268557625    4.46054912073945   -0.12645123954166
H        -0.35801831226361    6.51685547418807   -0.85012084662621
H         0.53411710811098    8.72520738195061   -0.20539617632450
H         2.58509048913002    8.87724818128240    1.15370243484569
H         3.76054319231069    6.83385343112335    1.85642219468649
H         6.03400555667867    4.71050459405777    1.06621350195913
H         7.69746963309655    5.40493833335005    2.74356880919720
H         7.06986418085204    5.56762756847120    5.12093215638146
H         4.76561486670862    5.03530590229966    5.82944282270682
H         3.09260130534947    4.32205082857289    4.14630734771286

