65
CSD_code = HICMEN | q = 0 | S = 0 | Stoichiometry = C26H28N6O4Ru | MND = 6
C         1.09139947076715    5.24488433871536    4.87959190968910
C        -2.25024896438550    6.79497194863831    3.30767824581964
C        -0.67486011590951    8.83146757738165    5.03652299031983
H        -0.90781665833305    8.99576323924762    3.99055458824165
C        -0.61614780733401    9.91365274786596    5.89110480969461
H        -0.77815195548372   10.90054287778929    5.48946043740189
C        -0.36320626966006    9.70153808296593    7.24578265658610
C        -0.17598165763328    8.37485701199489    7.65187673025663
H         0.02741365591707    8.16434746819266    8.68868445380195
C        -0.24340858762303    7.36086696879035    6.72786305447913
H        -0.06431903689415    6.33837310574117    7.03931170749947
C        -0.46497146233070   12.00170343782624    7.81777806493159
H        -0.35758255294137   12.58404863336210    8.73113468306826
H        -1.46189925632374   12.16624994896175    7.39763997445819
H         0.29248176911170   12.31912332900367    7.09433499541777
C        -2.69706983662399    5.49257245089007    6.11183173836436
H        -2.93120988787790    6.52782933548888    5.89239473676676
C        -3.44011723580258    4.80923429371576    7.04334607087731
H        -4.23716082317929    5.29698629214631    7.57954287209471
C        -3.16739513246276    3.46012463115149    7.29884502354327
C        -2.13478074973050    2.87829207731388    6.56421718572985
H        -1.85557664862654    1.84542158179447    6.69347971400842
C        -1.43676413629048    3.64554638041058    5.65387708197758
H        -0.61126537549974    3.20027151538117    5.11023877027066
C        -3.66456103575001    1.48689490287539    8.51859726845321
H        -4.37668710996679    1.20689543801483    9.29278395072460
H        -2.64636386844838    1.34797528465253    8.89468381536362
H        -3.81792129977405    0.85391363186476    7.63903979453529
C        -1.81406856495698    3.84364738578924    2.49508346126437
H        -2.69479575645628    4.17698288606085    3.03222172813537
C        -1.93310386665446    2.82232254268972    1.57444208733401
H        -2.89791084167873    2.36422197221396    1.43026731150940
C        -0.81146124776504    2.42195827001043    0.84908613448672
C         0.38789607523208    3.08982689579589    1.12331097577975
H         1.28258298755535    2.80605176988751    0.59446134626240
C         0.41370135819730    4.09029580307765    2.06401951574386
H         1.35040436464110    4.58253249406507    2.29835967928614
C        -1.97173373704162    0.76790616597734   -0.39474794402239
H        -1.71150324514286    0.04972224522411   -1.17024281400557
H        -2.73655450527925    1.45176635687439   -0.77529664067844
H        -2.36132064877867    0.23409487843121    0.47763660800943
C         0.24096119388404    7.16477660974862    1.47467391394684
H        -0.66622369286919    6.66255324098692    1.15936661219405
C         0.99315818676842    7.85279423480923    0.55405508106417
H         0.70741468676975    7.87789617444458   -0.48439579562029
C         2.14238411057158    8.53820988997886    0.96554214103557
C         2.45552257441071    8.48062803265379    2.32310672066928
H         3.32145678236753    8.97698022185055    2.72963460135436
C         1.64477516635345    7.75728836242947    3.17406132998629
H         1.91076530163093    7.68416249197024    4.22243330271450
C         4.01203215710634    9.88430039574409    0.39936646167793
H         4.41010083350114   10.32216061568247   -0.51424345392675
H         4.75430493691749    9.20508489940316    0.82965890210984
H         3.78838950172294   10.68104573635477    1.11560974535606
N         2.05501654499044    4.79954262751895    5.33412777352909
N        -3.21238379509100    7.24163405271115    2.85099409934147
N         0.54422472793505    7.09331391798083    2.78581162050171
N        -0.49270623452783    7.55697489250947    5.41808511889703
N        -1.68669115824257    4.94208007189886    5.41008126354505
N        -0.66902371900917    4.49378686783490    2.75773800671165
O         2.84523388315103    9.19476363701863    0.01445864105384
O        -0.77686961474944    1.44965070250145   -0.09061381960231
O        -3.92694740273873    2.84102684748256    8.23133209745470
O        -0.28198047242004   10.65779352520137    8.19904247248009
Ru       -0.57947430121515    6.02007375301082    4.09387439004477

