59
CSD_code = HICQAO | q = 0 | S = 0 | Stoichiometry = C30H22ClN5Pt | MND = 4
Pt        7.99308384558668   12.66954957425785    9.18498272861379
Cl        7.82128672874356   14.45619268837601   10.56550803734033
N         8.13735755617648   11.12440314838530    7.99163332292308
N         6.59926556066550   11.76107865065368   10.16112598730293
H         6.19756905333638   12.25945325727071   10.95695996896323
N         9.42226320121556   13.53243342986157    8.21784175188720
H         9.70867905225968   14.46035852225062    8.53535698689301
N         9.85993577340797   11.91145156035697    6.55855078158650
N         6.43589879702620    9.75656059380809    8.93240982339802
C        10.10983042791450   13.06472926278639    7.20067922524158
C        11.24516568860127   13.82007611696137    6.63621848846267
C         8.95382003584587   11.04697894789655    6.91846513409547
C         7.32523411890633   10.04365758121265    8.02506271187370
C        11.61787019554888   13.59965836097224    5.31040975085481
H        11.06115048732850   12.88108038189478    4.72987288798491
C         6.12922988496456   10.54788189127163    9.97560983991094
C        12.67494400782496   14.29646657794180    4.75822200210169
H        12.95217966673784   14.12419026579060    3.72884941258888
C         4.95321569011336   10.47013514017348   12.19214122223153
H         5.53186380581490   11.31018935637236   12.54980383313060
C         5.15477883913283    9.95321321408068   10.91198472255046
C         8.65298936285475    9.80744662656350    6.19052154139196
C        11.96395403281908   14.73815896270360    7.40058265168388
H        11.71942930087885   14.89913572487171    8.44123698760490
C         3.49407554660836    8.26523650181018   11.36526341623405
H         2.92920813283374    7.40293431157062   11.04346140328199
C         7.64584694044127    9.18690465897097    6.87742748291623
C         8.55949368775349    8.81840738815895    3.92507036892572
H         7.51150953715163    8.60858217469162    4.07851197672461
C        13.37918814058958   15.21413529247140    5.52151050164341
H        14.20633590061698   15.75778876114321    5.08994548530505
C         7.01190316820146    7.89920921023828    6.64746513770961
C        13.02460198170734   15.42806603617902    6.84339535457164
H        13.57868778516197   16.13346636446550    7.44459715090678
C         7.76778870000922    6.79511614116872    6.25146552954469
H         8.83253159121913    6.90504343472423    6.10830341347353
C        10.63791350885134    9.73272404114956    4.71760456099482
H        11.20649197376743   10.21672399920360    5.49541226150121
C         4.42098262221692    8.83476924140851   10.51457310897749
H         4.59641820442393    8.42501406895519    9.53340276810018
C         9.29192410653310    9.43946733679114    4.93896504917153
C         3.28908726017752    8.79579434895128   12.62878707634200
H         2.56362893117809    8.35176854563353   13.29395755452321
C         4.02632531665161    9.89378740729530   13.04044124685581
H         3.88117223063076   10.30250072583334   14.02936968845297
C         5.64101971713511    7.74501221974943    6.84828838437161
H         5.05418871020231    8.60078420852536    7.14337782973667
C        11.23536298400777    9.40179542640473    3.51608669156590
H        12.27916051568695    9.63028458433669    3.35680595268278
C         7.16249260793644    5.56882167630619    6.05960214699854
H         7.75721988644144    4.71933074918868    5.75734645758931
C         5.79810638674653    5.42487250279988    6.25712120256692
H         5.32773324029174    4.46465198751071    6.10532335569975
C         9.16281545078706    8.49285207182702    2.72657095544877
H         8.58477607352553    8.01644963493027    1.94831183567273
C        10.50287834278842    8.77986632412255    2.51829093503721
H        10.97208797759843    8.52271493647233    1.58013402879408
C         5.04078769806962    6.51582760868710    6.65087360119504
H         3.97676002835624    6.40701624160529    6.80340628586901

