87
CSD_code = HICTOC | q = 0 | S = 0 | Stoichiometry = C32H51BrNiP2 | MND = 4
Ni        2.29584481562370    3.80040096669092   -4.53772247843955
Br        1.11682666431459    4.77194227637766   -2.88079555105889
P         4.10680036608475    3.76246994942336   -3.43098645464623
P         0.63498583807612    3.61899683637778   -5.84314633849507
C         3.33301661106431    3.06688657570039   -5.99925830923099
C         4.67343717540573    2.69495744772454   -5.82352406187373
C         5.41965518895590    2.20047775991182   -6.88515921829150
C         4.85315475763339    2.05604951369044   -8.13687717999784
C         3.53192913347907    2.41224834868755   -8.32825544416995
C         2.77605937048137    2.91492307405519   -7.27778468894378
C         5.30211944159675    2.81155565915408   -4.46195106725984
C         1.34636757432133    3.32173300039747   -7.51511978717817
C         4.30887371276552    3.00006838108942   -1.75168616567527
C         3.42909233614971    1.74657448297233   -1.73688501196803
C         3.55267019292215    1.00336693736624   -0.41241497532968
C         3.17283729066682    1.92662391485526    0.74066256154769
C         4.05639798152559    3.16946414293709    0.73277657112404
C         3.92408972324359    3.91688970085392   -0.59269441025724
C         4.76696272597450    5.48615274564141   -3.31096231905843
C         6.22973330621072    5.63014517750520   -2.90527820512095
C         6.58141584705365    7.11402658565884   -2.80707791411792
C         6.33034786308561    7.81316507617829   -4.14091206446310
C         4.87477087740216    7.64867148905194   -4.57136131381044
C         4.51566381059768    6.17041880128217   -4.65633183841574
C        -0.62406896909831    4.95792003149058   -6.04725715736211
C         0.10085383055524    6.28650485667829   -6.26896253054586
C        -0.90571946104362    7.42872651676805   -6.34977854261447
C        -1.91396378142111    7.17018770716383   -7.46574411604707
C        -2.63148195776327    5.84253125511548   -7.24007801227548
C        -1.62780056152960    4.69326062631120   -7.16571020219638
C        -0.32172821277025    2.06426441265062   -5.51271795979137
C         0.71308593274316    0.98695725407973   -5.17662622359086
C         0.04973794748716   -0.33245947060960   -4.80184423767501
C        -0.91060637594251   -0.13222704430903   -3.63422625839519
C        -1.96279824937233    0.91000667463333   -3.99710814972314
C        -1.30175320174895    2.23887119289898   -4.35296337036768
H         6.45272155523216    1.92306728981362   -6.72223822859035
H         5.43754373595896    1.66776324261439   -8.95829897624083
H         3.07663234701229    2.30370954864452   -9.30373004055469
H         5.43618316283345    1.81634959636861   -4.02273947817617
H         6.28532180849123    3.28750278112395   -4.50512039697401
H         1.31925304305982    4.25260725663164   -8.09177744337166
H         0.78767342092008    2.56249715915157   -8.07170238419826
H         5.36618841680487    2.71128225738936   -1.65749541932273
H         3.69897568446106    1.08394164183745   -2.56648043325922
H         2.38786849244153    2.05557530106053   -1.87734224536481
H         4.58220899434440    0.65871410949836   -0.28174593455962
H         2.90461886297036    0.12425335509643   -0.41968489070330
H         3.27652614080875    1.39920570761012    1.69109656414211
H         2.12959176991803    2.22928703253748    0.63244726780575
H         5.09884704061210    2.87518218056999    0.88527269905793
H         3.77221444215289    3.83244151531269    1.55172803789048
H         2.89226012958863    4.25062368086514   -0.71690807199574
H         4.56675953678352    4.79883941913325   -0.57215681659130
H         4.13367885174976    5.97663249434676   -2.55788963858809
H         6.87636232675714    5.16746487361399   -3.65471886294215
H         6.41711241967869    5.13773289444433   -1.94846368533472
H         7.62933385154757    7.22660465605675   -2.51993656634825
H         5.96913977903080    7.58075882063877   -2.03202931224485
H         6.98383014637145    7.38208387173728   -4.90379063138405
H         6.57396769124652    8.87387685218542   -4.05428445043510
H         4.71557766299786    8.12835820267547   -5.53947698767545
H         4.22250971055388    8.13627404019866   -3.84316260486672
H         3.45429379805121    6.05484615892472   -4.93265206610977
H         5.11350582528892    5.68700193482527   -5.43526589655886
H        -1.15059028732077    5.02324360527456   -5.08612285329070
H         0.68202961160838    6.24956303270447   -7.19537324957449
H         0.79522309706661    6.46411640378257   -5.44181434018016
H        -0.38342545853287    8.37066226038068   -6.52893755814290
H        -1.42964539282933    7.51137719209840   -5.39548182021901
H        -1.39381798180446    7.14231963617226   -8.42685430330653
H        -2.64232470102188    7.98245862797737   -7.50489640444408
H        -3.34167859139733    5.65922213028986   -8.04965450762691
H        -3.19337989508005    5.89089679159169   -6.30458911030670
H        -2.15838461317702    3.75488108316446   -6.99016244971261
H        -1.10583721694540    4.61151960119871   -8.12255016782947
H        -0.86611439642637    1.78292490318308   -6.42447011637158
H         1.31937794867861    1.34241270088690   -4.32811263819266
H         1.38840203844798    0.83723813942019   -6.02432176562880
H         0.81456991717599   -1.06702148395783   -4.53993716157713
H        -0.50165750317545   -0.71771128707406   -5.66385636650033
H        -0.35264138898017    0.20839172829261   -2.75920510348414
H        -1.39158258696510   -1.07875177739142   -3.37916111659257
H        -2.64620263351713    1.05870966666199   -3.15911734633395
H        -2.54849659873618    0.55238462348764   -4.84857725431961
H        -2.07277400106754    2.96620692239898   -4.61466843270198
H        -0.76705955845091    2.61922476811929   -3.47922661444188

