93
CSD_code = HICZID | q = 0 | S = 0 | Stoichiometry = C36H48O6P2Ru | MND = 6
Ru        8.16488257183218    3.47413797134606    2.68490467995706
P         6.87094210734854    2.15079961815447    4.08623109969187
P         9.48308950388220    5.01285278334973    1.49952661411071
O         7.87132605708652    1.77654033723041    0.27967542690936
O        10.54094942709871    1.68269140487882    2.91579732822726
O         6.48787126218514    4.70145632568053    2.32647517004556
O         6.13265556680260    3.22332447497170    0.71221489269040
O         8.45898979108732    4.56258075126786    4.54903061738682
O        10.57536839851469    4.58702347695686    3.92796121578251
C         7.42588420588840    2.04866644477978    5.81874751604885
C         6.52186605383976    2.02167097782137    6.87598367497682
H         5.45956094689583    2.07439712735554    6.68197225033864
C         6.98119617836340    1.92952564999099    8.17792625690553
H         6.27439489804767    1.91331525739010    8.99482713345942
C         8.34029800812459    1.86011843236268    8.43527985948519
H         8.69493297411716    1.79507949030773    9.45347282116980
C         9.24386921819656    1.87542823194926    7.38484126953993
H        10.30462795021082    1.82050075273266    7.58048382690937
C         8.78977244407502    1.96673824878746    6.08169560430974
H         9.49297100583237    1.98916671195268    5.26034022663826
C         6.58816541469153    0.40298441216320    3.65998836509738
C         6.02121741323908    0.10925877001249    2.42076105208050
H         5.74853074688081    0.91158841190440    1.74901795371583
C         5.81085723795038   -1.20312402983819    2.04337841723476
H         5.37225199602592   -1.42078959227104    1.08098321692162
C         6.17234021905264   -2.23580299125458    2.89393352804440
H         6.01381399821321   -3.26175802335269    2.59634614961116
C         6.74362952262515   -1.95050169090271    4.12218173565450
H         7.03156256964862   -2.75356520052112    4.78480595805521
C         6.95264036599256   -0.63760977910885    4.50710967226854
H         7.40242136331152   -0.42235903953214    5.46578253368539
C         5.19646268890525    2.84076800034527    4.28619629730504
C         5.14617401301782    4.15792036051190    4.74584624988844
H         6.07358910347518    4.66385317514270    4.98504231417305
C         3.93013386354980    4.79785488098153    4.88279803827251
H         3.89224432149596    5.81752133998635    5.23752457144137
C         2.75608691206629    4.13204486342621    4.56083266811051
H         1.80462724962337    4.63328788132781    4.66346545998092
C         2.80296090181596    2.82395873014641    4.10940728279630
H         1.88855965007010    2.30306841344736    3.86409947110853
C         4.01927746094646    2.17476781159497    3.96877070832093
H         4.04896075412002    1.15224904676585    3.61990048122960
C         8.65671799055437    5.33162752052095   -0.13529277291096
H         8.57123304640164    4.34868116853885   -0.60667274847397
H         7.63839870059458    5.67761524292518    0.07514766615924
C         9.32689693709780    6.31127734950102   -1.09461969573053
H        10.39002767743376    6.08427721418106   -1.18629842898265
H         9.23264899691376    7.32723071232301   -0.70560229794248
C         8.69272961890138    6.26750886349175   -2.48836619223613
H         7.60728814124160    6.34826574999542   -2.39349133767242
H         9.03925489408542    7.13477842339280   -3.05614426979680
C         9.04259833264178    5.00395509171089   -3.26532132638865
H        10.12133211276693    4.91206251752809   -3.37378262821443
H         8.60228959698782    5.03998203943786   -4.25907117021625
H         8.67038845291827    4.11409240212299   -2.76427793630765
C         9.72612503933624    6.73082275286940    2.11994995829675
H        10.44926119253607    6.68091702450353    2.93530265510938
H        10.16329043527327    7.32641799695864    1.31252029751197
C         8.41420761764103    7.34252168167607    2.60506030347769
H         7.93458971173620    6.65145222696234    3.30471914731946
H         7.73417040994198    7.48005801339945    1.75902219027583
C         8.63574520420570    8.68620659435972    3.29491644525224
H         9.32101970263344    8.54893200662874    4.13471270567941
H         9.10772719478287    9.38119963594995    2.59506014336660
C         7.32766051660210    9.28262930136680    3.80019495475575
H         6.64243688365562    9.45782870901284    2.97303719130914
H         7.50555991283035   10.22992519706812    4.30432526948668
H         6.84884138762790    8.60303148330498    4.50197264753325
C        11.17257744362607    4.50827125165165    0.99496972109758
H        11.69103282427917    5.37384558298671    0.57191162330235
H        11.68259539718072    4.22537724891587    1.91747062777809
C        11.15470093500938    3.33384620709212    0.01775016624088
H        10.37403304041584    2.62590088878207    0.31407261441643
H        10.91815682451088    3.68461098854452   -0.98881134889298
C        12.49649312001167    2.60548688309895   -0.01064003964907
H        13.28747404789015    3.30740239408306   -0.28818537734874
H        12.71722341848637    2.23145214931900    0.99039212887967
C        12.47595010560376    1.44086512728128   -0.99249690360630
H        11.69388291242532    0.73649311576384   -0.71985852118363
H        13.42976920181359    0.91834244483145   -0.98946626597220
H        12.28062540922564    1.79390019769974   -2.00318432789905
C         7.56172375522281    2.60179399923990    1.06350849494367
C         9.63167224905141    2.37804097437558    2.85863669201616
C         5.80087469110846    4.25521814211205    1.41457185286887
C         4.48244453369667    4.89232742699123    1.05471782528762
H         4.32105860110425    4.83844353513199   -0.01805996992358
H         4.46448306483034    5.92179836261739    1.40096238772156
H         3.68723503931462    4.34025131281960    1.55394156862000
C         9.67615932354496    4.82191158029115    4.74440723089480
C        10.00860128870858    5.47869401548644    6.08146488881128
H         9.63115153790629    4.85634002536891    6.88964799395503
H         9.51693890728462    6.44752270191083    6.13626850743388
H        11.08274628457267    5.60413630444589    6.17564805177985

