56
CSD_code = HIDBOM | q = 0 | S = 0 | Stoichiometry = C25H27MnO3 | MND = 8
Mn        1.27664699166460    1.24082173011800    3.98034170394877
C         4.08651739893199    0.31511112620018    5.70826380620098
C         3.38763101672270    1.04862057018580    4.58685412973716
C         3.22278692289005    0.65749559934541    3.23819539488015
C         2.71233917594787    1.65605598005419    2.32595076521581
C         2.43490327152273    2.95536037213698    2.77923943274144
C         3.00946874145595    3.41909446723748    4.05872941270472
C         2.96819470060079    2.32742919821767    5.03901724382269
C         3.17072258481555    2.38254041301899    6.49194379871437
C         2.75297216804329    3.32442457124250    7.42817098841520
C         3.09288668705427    3.10307220312580    8.76705181165051
C         3.74956694367549    1.93298816878147    9.16355218288953
C         4.05984935643180    0.93405254312423    8.23091845114763
C         3.78477315309380    1.18906936738777    6.90156279615792
C         5.59920587473868    0.32671943375602    5.43053490202697
C         3.80362508040762   -0.63952196046971    2.73209774845903
C         2.59623887880152    1.34743707337207    0.85398534043811
C         1.95525279373508    4.01200222333984    1.82061389301002
C         3.53867273682251    4.62638979627854    4.27150982746330
C         1.89960751523724    4.49238369429937    7.02773033524879
C         2.73426756123493    4.11120323870603    9.82209580989537
C         4.08168721586771    1.74686641266788   10.61615618191739
C         4.64718459266274   -0.38072836071446    8.66135100985748
C         0.13222934919728    2.54758359135509    4.41978433038672
O        -0.59818354078288    3.40136405944270    4.66332956222401
C         0.85982668309728    0.12437242908633    5.30736476564717
O         0.67919987621073   -0.58215965831941    6.19824626733477
C         0.22873965777290    0.38900306565633    2.81271223603411
O        -0.42436883086704   -0.14689970626431    2.02952121483865
H         3.11874375568860   -1.15839468483220    2.06343817222921
H         4.73022823724040   -0.44779780167769    2.18634309510167
H         4.01845768953339   -1.31068738565168    3.56006399626397
H         2.60501635398534    0.28018820571294    0.65502299216533
H         3.44281198113413    1.80009893977655    0.33298294251719
H         1.68432775055130    1.75876652646183    0.42635004690237
H         1.12778394969942    3.65654155644333    1.20946503291599
H         2.76635606204983    4.31166591740394    1.15327935924307
H         1.61685683013813    4.88895007008540    2.36780413782514
H         3.55779009975173    5.38718017367675    3.51213360808520
H         3.96070926695967    4.88390102818444    5.22579044834452
H         1.60217785505274    4.41386928505352    5.98778693134946
H         2.42403254750353    5.43868382649844    7.16232947231566
H         0.99367526092272    4.51379306771299    7.63203478385221
H         2.22693706930891    4.97323705457904    9.40603317886986
H         3.63245713173293    4.46348957309621   10.32934701368570
H         2.08604465505006    3.66085852236109   10.57314039995366
H         4.58632571721957    2.62834763036910   11.00805756807430
H         4.72885779803980    0.89230752720248   10.77719318784021
H         3.17104010678894    1.60244377847712   11.19830153042090
H         4.07343169135623   -0.80104861596894    9.48536007845395
H         5.68019349162884   -0.25942762517804    8.98962867069116
H         4.63185378252950   -1.09782594398646    7.84634632182188
H         3.73695676972734   -0.71288924836898    5.84443038710692
H         6.13958950685645   -0.06716782188310    6.28673571515937
H         5.92984819270294    1.34999430811032    5.25913041584637
H         5.85015188986042   -0.27032950602712    4.55744516995594

