57
CSD_code = HIDCIH | q = 0 | S = 0 | Stoichiometry = C23H26N2O5Ti | MND = 10
Ti       19.73551427008267    7.47051341693756    6.79199838207134
O        20.10247388280442    7.65300437111527    8.62468822918066
O        19.40124075295894    8.23481980982106    5.11949776263223
O        21.36929174152748    7.08287312195590    6.45532665348286
N        18.15929749619404    8.78184174799286    7.42354740055665
N        20.75158928155453    9.68090716338994    6.83519241779188
C        19.45328208332920    8.42468113071385    9.40804137441360
C        21.49795385011317   10.30581517260731    7.73608656787754
H        21.28180697695624   10.09433292376325    8.77690047132470
C        17.20677931179275    9.38455954048766    6.71601479041736
H        17.15394924953860    9.12361116726347    5.66524257573315
O        20.09119214155293    9.45431237118774    3.39097298255911
C        20.98592579856214    9.92111726081156    5.54586206843555
C        17.42557957107886    9.98535238176216    9.36423255881198
H        17.57772658650529   10.17916801060737   10.41492917856067
O        19.70975129039075    8.67215093239221   10.57342854005815
C        20.10115034884915    9.15156948425908    4.56945395313384
C        19.23109462360361    5.32666397618859    7.27417389384079
C        17.66006044859033    6.09313901949706    5.76110066649722
C        18.27289932050103    9.09494164653028    8.71724809261972
C        16.32300302574860   10.29297624468019    7.27579572552665
H        15.56630323116471   10.75684079787405    6.66246840843365
C        21.96440852829211   10.80309491055232    5.10330807398011
H        22.08857333908061   10.95384840371374    4.04216561106074
C        18.08541480272142    5.76259294597080    7.98636851996868
C        22.61971819480751    7.12570738072375    7.02243686247364
H        23.16827637781929    6.19380430899321    6.81518309610818
H        22.53622566836454    7.25199173252858    8.11484546489119
H        23.21050237440490    7.96335141050587    6.61189897638090
C        18.97299710162231    5.55468729802373    5.87466987344916
C        19.78476094200904    5.03902341504095    4.71875156566133
H        19.44183491704125    4.04131968736245    4.42957337846807
H        20.84225745484436    4.98056922947872    4.97884811825608
H        19.67980900068293    5.70042649074457    3.85828630786995
C        16.42426254269298   10.59488242403730    8.62849742356427
H        15.74337802956505   11.29388266747128    9.09074876241392
C        17.86836964660458    5.66109005732232    9.46336339212283
H        17.15826299678945    4.86211318888396    9.68912146369413
H        17.45847089405277    6.58971819402103    9.86849655967933
H        18.80164762577145    5.44883152351813    9.98040399412382
C        17.12871554464644    6.23388810606964    7.05316828755135
C        22.50785722394913   11.19369076088405    7.38968946563939
H        23.09142535267012   11.67412395020479    8.15931749642193
C        22.74513943244121   11.44943374534252    6.04727400749498
H        23.52248663413733   12.13616981759198    5.74564071814157
C        15.74447433408793    6.67868132698401    7.42017939196105
H        15.30359116234456    7.29955495575954    6.64266520737026
H        15.74835194448098    7.24505125046339    8.35203879794496
H        15.09649432755457    5.81151243207144    7.56501703772432
C        16.99001966485039    6.39315873641626    4.45573636484501
H        16.89776326881597    5.48314520147885    3.86056002686853
H        17.58190567571191    7.10892825395960    3.88154187138007
H        15.99290173888430    6.80051014356666    4.60741184373893
C        20.34992378655300    4.50473426812407    7.85636008499744
H        20.76969836995393    4.98717701306846    8.74097064576105
H        21.14587215660001    4.36412684491003    7.12678198605407
H        19.97504366175206    3.52018623234971    8.14837662798338

