50
CSD_code = HIDGEH | q = 0 | S = 0 | Stoichiometry = C17H22FeN8S2 | MND = 6
Fe        3.78159156346773    7.51230190735478   12.08128568355122
N         4.69503145267247    6.85354866005414   13.83002441443624
C         5.13862746199878    7.18893402134603   15.01624190700117
C         4.98909925924747    8.50714939718130   15.67240556757289
H         5.94967653781124    8.92000174201066   15.97658125569196
H         4.36215759656777    8.39955482168784   16.55766444583911
H         4.48796081257444    9.17880451243860   14.98291757295700
N         5.66321722265994    6.10438385402939   15.63994634422484
H         6.06813725482446    6.09276861682012   16.56216401651622
C         5.51046025658008    5.02012418582151   14.82135027244281
H         5.84559905223025    4.04110502969279   15.09138121398076
C         4.88229455170953    5.49450428415582   13.69437312859785
C         4.22728631931968    4.88097249448809   12.58758299572220
H         4.28150359401185    3.80337000952632   12.45564345839927
N         3.48702348343805    5.64043536123408   11.84511468878511
C         2.62928456007189    4.97094242241691   10.89846753780225
H         1.67059719654216    4.80088685932148   11.40645964884775
H         3.04798144455015    3.99115057241073   10.63275865900836
C         2.34900845696917    5.75911467735458    9.61190671003620
C         1.76069423545963    7.12940553276612    9.98032040160244
H         1.34383813874163    7.59871594654523    9.07942696824979
H         0.94511894705465    6.97764525499539   10.69758671382318
C         3.62832304799218    5.92569580451635    8.79372241816919
H         4.00327360257936    4.95510061359894    8.47722364423805
H         4.39382872003963    6.41719638100681    9.38877366400990
H         3.43674557496421    6.52533672738486    7.90686706847369
C         1.30747826752043    4.98764730362517    8.79450621798419
H         1.66631534479601    3.98607242944381    8.57007445245951
H         1.11305866993765    5.49548884130084    7.85305372080410
H         0.36950864611540    4.90256561225699    9.33878599631031
N         2.71546605946729    8.00257199907513   10.60596690071016
C         2.68684094427391    9.25167548948920   10.27555142365297
H         2.01440686579537    9.64611337722767    9.51832074579674
C         3.61301341814078   10.11234071543759   10.93111609957722
C         4.06241637606861   11.39007167755717   10.69753746713063
H         3.74267462036746   12.14294606718553   10.00859025956849
N         5.10230150118405   11.57520228079430   11.56421599434385
H         5.67378969501376   12.40196395974806   11.63103462640194
C         5.26420979131350   10.43893122980028   12.28745653033435
C         6.38544766773709   10.25725993397870   13.23671624370018
H         7.31201324097939   10.59869191680545   12.77741747961870
H         6.48000479299604    9.20009305235672   13.46097877281922
H         6.22728932217947   10.81926732934193   14.15652508231289
N         4.35879953193064    9.55409063271530   11.94749164543009
N         5.44150434141936    7.29349263996915   11.16916517139327
C         6.60451883770116    7.45516447070914   11.12396188933790
S         8.17240621982778    7.66347386657016   11.01628627370062
N         2.28474684755428    7.85836133439149   13.18763582461789
C         1.81917576466691    8.04000142858074   14.25083721497765
S         1.14595288893404    8.29956272147890   15.66298356702881

