55
CSD_code = HIDKEL | q = 0 | S = 0 | Stoichiometry = C23H23I2N4O2Rh | MND = 6
I         8.42784575388571   11.58131151483243    5.37334481102933
I         5.50074079428833    7.29691628104407    4.08063747189947
Rh        6.96630719542683    9.44408588693371    4.72365708939582
O         8.30172595030091    8.22321499009302    5.84778586545134
O         6.57017229119437    9.12238411489160    6.79225455846327
N         4.26105272718738   10.74108974046138    4.54764116484173
N         5.54475884657143   11.41437032818603    2.96152932307191
N         8.45352932291110    8.56864431613372    2.26191493319056
N         7.43848658981826   10.43325804138844    1.92975559042149
C         5.50251266450841   10.61443568747049    4.05257445107304
C         3.53461153043333   11.61356087425899    3.78443831765894
C         4.33597858915332   12.03764864416021    2.78376403981845
C         7.68062063864162    9.48564746396188    2.86559642037511
C         8.70083962306567    8.93710658958020    0.96795237380770
C         8.06233585151684   10.10726991869265    0.75264075023220
C         6.71877203165908   11.65445588259043    2.16783747878899
C         3.72602653171085   10.14509680881914    5.75546364033031
C         3.45622018542016   11.22729526828741    6.76917184732394
C         4.52924175520821   11.90508896219804    7.33420496446349
C         4.31021377726961   12.92674943915330    8.23903989517443
C         3.01577672052132   13.27600041188017    8.58862174106392
C         1.94336037459541   12.59999896565095    8.03288062435615
C         2.16217721255748   11.58122930545501    7.12097216647135
C         9.04988904210149    7.38719689364878    2.85322887452876
C        10.54460360749641    7.56756584767428    2.92731718470702
C        11.06978645255079    8.48345926994694    3.83008306182129
C        12.43382396243446    8.69834435183019    3.89180228356688
C        13.28361151458991    7.99629205054782    3.05248880562893
C        12.76592774245138    7.07867533871620    2.15480210330121
C        11.39902386132386    6.86796955921526    2.08806465015336
C         7.59926813303582    8.40418320428911    6.87518666193620
C         7.97360894149791    7.75517971153595    8.17884619673727
H         2.51931763744231   11.85882496134970    4.01703290385613
H         4.15674885762020   12.71897400235649    1.97850528308560
H         9.30646992100021    8.34279140295438    0.31602947039010
H         8.00205994639119   10.72699444065163   -0.11748534250617
H         7.37628382717730   12.36494759710254    2.69896326733874
H         6.42032768389142   12.08778854855584    1.20790850974561
H         2.81258382435866    9.59927248435625    5.50320631098013
H         4.46029260924890    9.44409709768373    6.15843319532884
H         5.53690076708892   11.61865213625818    7.07149931306268
H         5.14971758900949   13.44864281393147    8.67289659875538
H         2.84280376597192   14.07245429515580    9.29718185585173
H         0.93305524202225   12.86654846687435    8.30734242230017
H         1.32249129636108   11.05295726687212    6.69022907458232
H         8.64836699938363    7.25504630413743    3.86014850786359
H         8.78323531251487    6.51838993940205    2.24504356445115
H        10.40500996045136    9.01633383928426    4.49340749510713
H        12.83348516201952    9.41218628783082    4.59616309212548
H        14.34978893450996    8.16128088566735    3.10089513965348
H        13.42651495904340    6.52593006663349    1.50296709727340
H        10.99774228061885    6.14779566154546    1.38811002645179
H         7.46293092454772    6.79516042083924    8.24446362457166
H         7.65225200482300    8.38114067923846    9.00689409828841
H         9.04667027918445    7.58786473779049    8.21206515035621

