149
CSD_code = HIDKUB | q = 0 | S = 0 | Stoichiometry = C60H78N6O2P2Pt | MND = 4
Pt        3.41278585415059    4.19679166457322    6.67087222342274
P         4.58319831230292    6.12621210726760    6.33435355156086
O         3.51910832821907    3.36765165466211   11.80433623599238
N        -1.24281121066697    3.84436395738358   13.07798409148169
N         0.79609086796879    6.47768568842234   11.79059754077012
N         3.59424420851360    8.33047227082268   10.58300021000618
C         3.88847492095719    9.55786052921166   10.19568732294329
C         2.94463240523972   10.55734609419299   10.01712941591046
C         1.61443623251747   10.24682395276558   10.25895920991262
C         1.29563861934614    8.96927816679089   10.67634585562611
C         2.32007826935916    8.03274382975840   10.83222643488609
C         2.01810724595817    6.67418661437213   11.30819536299822
C         2.99156640574191    5.68046527705808   11.26039467030159
C         2.68135391354144    4.41859745929300   11.76400152570219
C         1.40284146211647    4.22255732842527   12.29019333040266
C         0.49719891995604    5.27457435113433   12.27439714264362
C        -0.86433421993241    5.08953521435120   12.79725077215324
C        -1.71279543772417    6.18296282907768   12.97734339796766
C        -2.98902448358913    5.96319063893862   13.45965958129006
C        -3.38068563411176    4.66378641098494   13.74669890887278
C        -2.46261732130550    3.64531428467502   13.53658856520785
C         4.74517650194206    3.45508804942063   11.06759096603490
C         4.48532389836282    3.68410757827323    9.65323197439984
C         4.12713413523696    3.90571739918098    8.52131478408586
C         5.64527099615270    6.66160890100784    7.74379263916920
C         6.39255649062586    7.98385636628422    7.61702573193094
C         7.29401911936151    8.20847893764847    8.83089857579733
C         8.00239245149899    9.55645052471841    8.76830756505142
C         3.55968087799394    7.60769947538450    5.94453816221595
C         2.63025554149886    8.01730563560810    7.08427398112176
C         1.55448585133243    6.97519459632951    7.38335918242268
C         0.44131890640503    6.94743015370365    6.34386870109928
C         5.70799705149937    6.11570554248480    4.87812937904029
C         6.55850545961080    4.84873673163978    4.86589172833503
C         7.71094275666344    4.92723177820413    3.86882142738966
C         8.50680617456957    3.62870893990961    3.83554192848603
H         4.93944191054214    9.75042442477753   10.02128305515842
H         3.24188482140307   11.54488665479438    9.69963642702799
H         0.84277198110267   10.99217601035725   10.12774782839521
H         0.28145128669776    8.67171034547195   10.88640179266291
H         3.94991211324550    5.92173142408372   10.83538394444176
H         1.11869361145296    3.26833671232082   12.70095149061545
H        -1.35255165213422    7.16972237501064   12.73757310432788
H        -3.67055542765995    6.78862765930041   13.61067893631121
H        -4.36834986799889    4.44645288603491   14.12315619534337
H        -2.71722775394435    2.61339183930581   13.74480302303949
H         5.38592752786279    4.24309008702944   11.49194009516088
H         5.22782417252639    2.48458426167664   11.23026370364570
H         4.98766063319941    6.68956340109552    8.61854968391999
H         6.35139890786621    5.84205800479985    7.91276948552539
H         5.68004937205438    8.80824842663214    7.54600078346669
H         7.00950129718955    7.99255545721133    6.71594819210349
H         6.69127988676008    8.15102364939562    9.73967313438108
H         8.03854720056168    7.41041048778560    8.87874673135732
H         8.63375510686844    9.69849395131392    9.64220056070393
H         7.27969119350954   10.36951908032834    8.73225721444059
H         8.62793922222221    9.61928356025438    7.88014977018299
H         4.23663447060509    8.42887721287861    5.68875867767924
H         2.98108677426147    7.35583829476388    5.05263010629354
H         3.22341370060630    8.17961950206041    7.98602845567764
H         2.15023270137610    8.96838970353766    6.83217685301120
H         1.12491860125861    7.18501692704747    8.36585408599028
H         2.02915489525600    5.97923333425393    7.42960387664905
H        -0.34513958404548    6.26674900902558    6.65981251725849
H         0.00713596557835    7.93813022130100    6.21870047033782
H         0.81769592961289    6.60257561085116    5.38425092430466
H         6.33873208560303    7.00891176093415    4.90032097023623
H         5.08726045263763    6.15905663767238    3.97975835818506
H         6.96233735009491    4.66912625032088    5.86708718590402
H         5.91663579334006    4.00236756869911    4.60963826441160
H         8.37414948749921    5.75204298953907    4.14360979770815
H         7.31875607235875    5.13381103468923    2.87143454324732
H         9.32513253047796    3.70045727636682    3.12259731123964
H         8.92288568567175    3.40765012283332    4.81678294387484
H         7.86647219173592    2.80153745835724    3.53787375007885
P         2.24254354591010    2.26730587021068    7.00749496880754
O         3.30726277323776    5.02568662521338    1.53760318694429
N         8.06915289878653    4.54720211973772    0.26474137008409
N         6.02892330201873    1.91446234159006    1.55122128547663
N         3.22982243441105    0.06296813468842    2.75879305745035
C         2.93494859465155   -1.16429383408911    3.14601161265239
C         3.87821959549767   -2.16440177995740    3.32409669031843
C         5.20851815958733   -1.85470405823352    3.08177781993869
C         5.52797728513118   -0.57729720892179    2.66447122614190
C         4.50409174141248    0.35993642547727    2.50917374471163
C         4.80675896943849    1.71842156448977    2.03344104208677
C         3.83374370213592    2.71257705563145    2.08130966368546
C         4.14456163535890    3.97437903498987    1.57791689625353
C         5.42323845854627    4.16995253758316    1.05195284132721
C         6.32842239876913    3.11754061847547    1.06771519486139
C         7.69013325463624    3.30212567431145    0.54516746591194
C         8.53822952782052    2.20841086960812    0.36510913783409
C         9.81470171112205    2.42779505792609   -0.11674226601986
C        10.20694225682722    3.72710606993460   -0.40341403144570
C         9.28917239054656    4.74587793771758   -0.19345367987214
C         2.08101561175818    4.93864847696055    2.27409514127010
C         2.34048072324679    4.70954830732431    3.68841137756009
C         2.69854936474234    4.48792463068166    4.82050694712647
C         1.18006270135826    1.73204243953449    5.59831653471033
C         0.43278373251333    0.40981642676046    5.72532203870287
C        -0.46963158175700    0.18552149824400    4.51210199973451
C        -1.17825755293225   -1.16229715518658    4.57513557955851
C         3.26604628694471    0.78573475287566    7.39705087790111
C         4.19529072620930    0.37632984726727    6.25709180890993
C         5.27109650709209    1.41843840033580    5.95809398291171
C         6.38436558144353    1.44597344987402    6.99748489350879
C         1.11797709014519    2.27795538342412    8.46389581689125
C         0.26760110130937    3.54502269631125    8.47621440039391
C        -0.88489354583069    3.46664626188427    9.47323606849956
C        -1.68036151582381    4.76540876926916    9.50685199724658
H         1.88392374895496   -1.35621663602010    3.32075955303990
H         3.58045548686231   -3.15178917140769    3.64158599863076
H         5.97974884019410   -2.60058082013668    3.21255408901521
H         6.54226992992858   -0.28035504382666    2.45405080995611
H         2.87525741445760    2.47167214134841    2.50620938229890
H         5.70785470697630    5.12411090545244    0.64137594552748
H         8.17753114788347    1.22173727009132    0.60454814012040
H        10.49596071287754    1.60212816047006   -0.26772594509778
H        11.19481792798488    3.94414011729808   -0.77948746996628
H         9.54422084511159    5.77773914405463   -0.40143523742967
H         1.44007593761046    4.15087508575518    1.84962278012731
H         1.59872842759489    5.90931477960066    2.11135578860994
H         1.83739291099258    1.70408348192259    4.72335606956375
H         0.47390054927786    2.55162209534786    5.42956916347256
H         1.14529591814763   -0.41463849776884    5.79563280129003
H        -0.18348677550138    0.40094350106456    6.62686009507741
H         0.13242481773053    0.24293115393389    3.60286955680488
H        -1.21401937956068    0.98376384233024    4.46488695188877
H        -1.81039584162474   -1.30408538806450    3.70176714887026
H        -0.45572981524250   -1.97555285505647    4.61047696939829
H        -1.80307200889334   -1.22509074933936    5.46381318352391
H         2.58910139144716   -0.03546958170552    7.65278364280531
H         3.84475723833588    1.03745528027149    8.28892800821807
H         3.60200597851911    0.21424759222815    5.35536995358978
H         4.67527361142845   -0.57483242386138    6.50893277116019
H         5.70056873531319    1.20876077818163    4.97552555560722
H         4.79648813065024    2.41443745544730    5.91206676970407
H         7.17074935058535    2.12681586695062    6.68168966885726
H         6.81862941082913    0.45526651616316    7.12230798312439
H         6.00803975754795    1.79050011672303    7.95723909436035
H         0.48710981553658    1.38484824667634    8.44183874904403
H         1.73881443054796    2.23455478231225    9.36219153199228
H        -0.13617415343282    3.72477067769144    7.47502458230485
H         0.90956768770667    4.39127860237071    8.73256335862181
H        -1.54834434031553    2.64212044056009    9.19821081824798
H        -0.49279867572200    3.25967595164439   10.47057191699637
H        -2.49862114393424    4.69378567090782   10.21989682871731
H        -2.09649016279182    4.98674673116709    8.52569694889163
H        -1.03971694912805    5.59231698856585    9.80458302928807

