37
CSD_code = HIDLOX | q = 0 | S = 0 | Stoichiometry = C15H16ClNO2PtS | MND = 4
Pt        1.08720837213578    2.05112193355686    2.09432140282792
Cl        1.26516477262653    0.60814957612386    3.81970586146490
S         3.19912182899630    1.36164036173515    1.59869368429491
O        -0.65471965778717    2.71158496575977    2.87676722976608
O         3.91807254717802    1.99434181491193    0.50175951192506
N         0.82070803987633    3.25388506153048    0.50663002114862
C         0.05532466576176    4.29925376043577    0.49554911238808
H         0.02999248222095    4.89862834930924   -0.41613354245444
C        -0.83435517618752    4.70916528592566    1.52186194021926
C        -1.49513658545422    5.94687907435059    1.37416071957801
H        -1.23550308847438    6.56451503776257    0.52569016077273
C        -2.43182702485724    6.37598637481587    2.27324760713943
H        -2.91656666322264    7.33145584574473    2.14823379761498
C        -2.76512965440207    5.55621944591404    3.35797881834422
H        -3.51101407951542    5.88571563011326    4.06623885819494
C        -2.15763135536676    4.34302414071420    3.52782515958761
H        -2.40674276460280    3.69999706388968    4.35732177562949
C        -1.16033940453817    3.87406545953811    2.63549859752582
C         1.48956517054680    2.87418309907400   -0.66604848553903
C         2.22308758900448    3.77097141912814   -1.43468204332221
H         2.32221176239928    4.79709588176430   -1.11288763280401
C         2.86657086364672    3.32924698174836   -2.57545729016131
H         3.45276496579238    4.02317999597064   -3.15877880043979
C         2.77080066770610    2.00500594643396   -2.96648836666429
H         3.27849042102247    1.66594243813904   -3.85663572704990
C         2.03022074408770    1.11226764905467   -2.20892603919229
H         1.95138798648525    0.07899409982322   -2.51307105897806
C         1.39346505664086    1.54110256056938   -1.06171922857195
H         0.79635686156045    0.86097537297780   -0.46166881139516
C         3.36824410746905   -0.43796112729720    1.39363712299639
H         2.89102666160080   -0.71402032944399    0.45995107504948
H         2.87055514281863   -0.90487563819904    2.23604230223458
H         4.42243174750088   -0.68540355907928    1.35911168562098
C         4.25460614828414    1.56025400180359    3.06546514685164
H         4.25745580761832    2.61319344509765    3.32940647824888
H         5.25689868526635    1.24131803316787    2.80257998980724
H         3.83263235614476    0.96970054712866    3.87021896734095

