79
CSD_code = HIDMAK | q = 0 | S = 0 | Stoichiometry = C37H37ClNOPPt | MND = 4
Pt       24.35179492660848    7.77296909258332    8.57479778958166
Cl       22.42933570186646    8.47539844295542    7.49398505053871
P        25.47637603315468    8.57703297416040    6.77258052566235
O        26.15410201079996    7.27784587466599    9.39892843298304
N        23.37255021323111    7.11537553986018   10.18036313498922
C        26.34294988633893    6.78535038282985   10.57085234534025
C        27.68557752499258    6.55073012072651   10.96803646250881
H        28.45410730260700    6.81047888147996   10.25490131882132
C        27.99424599664785    6.02602782308770   12.19146595844063
H        29.02783977942292    5.86170237888350   12.46033298631856
C        26.98258658669461    5.69870654570311   13.10172979261753
H        27.23472867376734    5.28379652810934   14.06536864201877
C        25.67683764125063    5.91145955772673   12.75521023344174
H        24.88609260868705    5.66335746633011   13.45038740743613
C        25.31532846684361    6.45271833065988   11.50434218365966
C        23.92961930886319    6.62979110538375   11.24153188613353
H        23.26335672233806    6.30871075938219   12.04696206303516
C        21.95456764522735    7.15558977001502   10.15712654077263
C        21.28019504568123    8.20302282023472   10.78863803417224
C        19.89289822440259    8.17237211436937   10.80816877023805
H        19.34894909599301    8.96922324484774   11.29201170159216
C        19.19871640667043    7.13619954882897   10.21521757291476
H        18.11938550300721    7.11946008821929   10.25261037686170
C        19.88060169042038    6.13460218228421    9.54925076001993
H        19.32506029953852    5.34796362880699    9.06367089068630
C        21.26558742184485    6.13333272283572    9.49545004417116
C        22.02932271972800    5.06720246485417    8.74303326080675
H        23.03935780299800    5.45639459580558    8.52561065567339
C        21.37880815102218    4.74053766439498    7.39925285622913
H        20.44486312857449    4.19962795156707    7.52955776992671
H        22.04803571982097    4.11963521748949    6.80673091938982
H        21.17900954516521    5.66014205614976    6.85448165390777
C        22.17472917557991    3.81113256716103    9.60480910615994
H        22.71658749144866    4.03262374929539   10.52258869751058
H        22.71929958143026    3.04119240699250    9.06235170583386
H        21.19413631694335    3.42087071271227    9.87069277495826
C        22.03423333625428    9.37618299431671   11.37189517637403
H        23.10979671213701    9.21338221974436   11.23188312195774
C        21.66518675645618   10.65221371699149   10.61088161233689
H        21.83745681521273   10.50828599943926    9.54636737392220
H        22.27442934197558   11.48510308060162   10.95659293286430
H        20.61843653655541   10.90565533683472   10.75801032935287
C        21.76930364080331    9.52493517128938   12.87045730731457
H        20.71697919081289    9.72105062544822   13.06061356410547
H        22.35016858532791   10.35197070277933   13.27347683125269
H        22.04969921403399    8.61716832766855   13.40170750211018
C        24.95574257468881   10.28036876781207    6.42026980973834
C        24.84772257323576   10.82156625752559    5.14710370606896
H        25.07570293887176   10.21864812992658    4.27989361251259
C        24.42838244760479   12.13236744479129    4.99354132236470
H        24.33905088851182   12.55306982284092    4.00254187087293
C        24.11477132861283   12.90073787804165    6.10188742996637
H        23.78186973040657   13.92022493096269    5.97394503908420
C        24.21446270737863   12.36006509585891    7.37493511174507
H        23.95673918171535   12.95592240293229    8.23809653107528
C        24.63208789571258   11.05339908638332    7.53316351766663
H        24.69905804207304   10.60393619846402    8.52051068256223
C        27.27753073986607    8.70399727615940    6.97764705540273
C        27.93718772924926    9.91260339537945    7.15839692885725
H        27.38294552661722   10.84058032610539    7.12809516113010
C        29.30469545119136    9.92651087059819    7.37480035823693
H        29.81617911292273   10.86830449257562    7.51176073419486
C        30.01525033405239    8.73931821195013    7.42144460132300
H        31.08108210000706    8.75462106840424    7.59648772226187
C        29.35800542680741    7.53029685218428    7.24948257092371
H        29.91159062210859    6.60337871148425    7.29267489250406
C        27.99474145941917    7.51155169781396    7.03056260529488
H        27.46840721425356    6.57472426722717    6.90603190033502
C        25.33397279130789    7.67625262180857    5.20187220799468
C        26.25051598794143    7.86741925933777    4.17113122376187
H        27.07503543114069    8.55532384104136    4.30420261549745
C        26.10897786798613    7.16854735142215    2.98643086017307
H        26.81857560912391    7.31898065752696    2.18568298065762
C        25.06097187076967    6.27525548106147    2.82588378291630
H        24.95586701957982    5.73174654605322    1.89838363379097
C        24.15384207552890    6.07592685159020    3.85358279766845
H        23.34061294517704    5.37633393082012    3.72921158250126
C        24.28958424192566    6.77279773983773    5.04108463758642
H        23.58650765492873    6.63149704779172    5.85184445631019

