33
CSD_code = HIDMIT | q = 0 | S = 0 | Stoichiometry = C13H12Cl2N4OZn | MND = 5
Zn        7.48392582400845   12.16037088883096    9.79753829456502
Cl        6.84228773276243   14.24107875998563    9.64101195093745
Cl        7.81653691269336   10.85742834984225   11.62434977565932
N         5.63034225282508   11.24530523649265    8.95508952805124
C         4.47496110433536   11.86997426693055    8.82624389656610
H         4.46114478366394   12.89718658953412    9.16370973179233
C         3.35469705632565   11.25499333034408    8.28441950929884
H         2.42475065654389   11.79361846972631    8.20131646247246
C         3.46812603258899    9.94571734422655    7.84489393246819
H         2.62592839863021    9.43857862769780    7.39790867175648
C         4.68341119143640    9.29348158273690    7.97804447960182
H         4.81378247366981    8.28518687720291    7.61638418161662
C         5.74998559827262    9.97698538618974    8.55761953705329
C         7.08789711955479    9.39426980664811    8.73412974441748
N         8.50719823287105    7.47339209364709    8.83306029297927
C         8.75523587802172    6.21944647294565    9.16221128048031
H         9.76238144615761    5.87879000967545    8.96024318187587
C         7.81032942133592    5.38025447339576    9.73081121807633
H         8.05717398462160    4.35979979469981    9.97562703774032
C         6.55339862539342    5.90254327294124    9.99696653503275
H         5.79612806749609    5.29623932859677   10.47135490638849
C         6.28231651327988    7.21602164918276    9.65766514344823
H         5.32909049309844    7.66046744602276    9.89255723376034
C         7.28556517066492    7.97519428412888    9.04939417625726
N         8.02691348888562   10.27056471692897    8.71326392779789
N         9.31507442876916    9.99359433923310    8.88315269941948
H         9.57149487993827    9.00153553993013    8.98127288584121
C        10.12554299158541   11.03874600022738    9.23833005419164
O         9.69580531467200   12.17243147925284    9.31843925088193
C        11.54546461928536   10.65379986871223    9.52112641887930
H        11.90007579381108    9.91046225460231    8.81250258639612
H        11.59199275334653   10.23443852108263   10.52552803505690
H        12.17484075945905   11.53830293841984    9.48933343924929

