54
CSD_code = HIDYUQ | q = -1 | S = 0 | Stoichiometry = C24H24CoN2O3(1-) | MND = 4
Co        4.90433356544428   11.21458241483744    2.71018966274086
N         4.91999951976087    8.32663133204059    3.62418695798077
N         6.76512019835337    9.29119275645547    4.12902931022451
C         3.60487986400653    8.05105904115711    3.17679020245757
C         7.79689622999024   10.24183392517469    4.32243565534093
C         2.55071290840496    8.12939165105885    4.08718802633417
C         3.38897451059359    7.65926089293545    1.85633687493500
C         2.09576384859419    7.35705353519708    1.45826833030936
H         1.91524642397698    7.07020547215880    0.43068965706331
C         1.03092878072358    7.43060082348501    2.34266126376324
C         7.87873413851324   10.91186392964419    5.54338959001759
C         5.56721513733354    9.52683472241731    3.51127238786641
C         8.73997890004430   10.45637526617611    3.31828084798057
C         1.27371972191373    7.81599844348048    3.65372623091707
H         0.44617333737659    7.89334845708055    4.34624037285340
C         9.76251853787799   11.36283268256756    3.55286574757893
H        10.48848728268899   11.55009026194971    2.77268851016103
O         6.31418778959633   13.39572660235108    4.08395168004552
C         5.75004055355589   12.50136586180407    3.57499396885201
O         1.97177075726767   11.10596052925759    2.85831975884197
C         9.86425585819121   12.04308093025838    4.75628543350486
C         6.84578013063337    8.00519956438434    4.60808275605698
H         7.71691513391771    7.64000798448600    5.11700573425352
O         5.57423232928769   11.47512549660206   -0.13181076628968
C         5.32071471161661   11.34101165653860    1.00841447995730
C         5.68387781855107    7.39779148086739    4.29014465239529
H         5.33915255125473    6.39712709282253    4.46638413994919
C         2.80887766614323    8.59736211595773    5.48669154257785
H         1.88780914413102    8.62018745399841    6.06448123458631
H         3.22763001446856    9.60366392579967    5.45138463243599
H         3.52877161125392    7.95258285084042    5.99261182173626
C         4.53381082880987    7.61802416610263    0.89568636122148
H         4.22234231330714    7.22635624792217   -0.06986019028878
H         5.35023142103337    7.00762928389079    1.28293617484025
H         4.91283895172907    8.63381613753393    0.76227185761521
C         8.91665191647211   11.80624572446648    5.74239144649306
H         8.97788752314803   12.34588697308383    6.67803125351007
C        -0.36889496626098    7.13765514486064    1.88716064989089
H        -0.36736502530841    6.51236513404305    0.99656404425340
H        -0.87807644475558    8.07119071696628    1.64628585580900
H        -0.93695044524762    6.63746958316510    2.67017472397043
C         6.82433758963580   10.69316858967886    6.58488009296578
H         7.01938949041882   11.29776731876742    7.46756980360040
H         6.77045090995791    9.64402190334893    6.87867588133266
H         5.85537030677484   10.97536476731214    6.17178337409619
C         8.60651877338953    9.74943235253515    2.00775803020942
H         9.45963850725381    9.95103454803252    1.36404406863720
H         7.69738966352245   10.10068117172262    1.51428634864444
H         8.51137417231488    8.67246591032280    2.14957930666015
C         3.14492567454166   11.12856848897951    2.83947527853442
C        10.95612045240265   13.04801413507342    4.98188365612707
H        11.79990310405668   12.86342173503121    4.32000570634656
H        11.30307049904104   13.02130438869963    6.01378574461771
H        10.57853580828833   14.05066642465058    4.77984983349046

