45
CSD_code = HIDZEA | q = 0 | S = 0 | Stoichiometry = C23H15N2O4V | MND = 6
V         9.48647369788627    2.34397863941260   13.55771857872714
N         8.67261362212592    2.09295846848935   11.74330597044557
N         7.24182458205019    1.88834992744667   14.01198002989468
O         9.21042347141477    0.09636757774387   13.47939296801451
O         9.71233226987898    1.98325192118550   15.31525929093950
O        10.92560725179133    2.18930497692703   13.03721419834222
O         9.07304108276063    3.82690629085517   13.51409455539658
C        10.00676322354193   -0.56754029126684   14.14546038740761
H        10.06871570616337   -1.64453419575192   13.89993836902148
C        10.79987526207896   -0.13601494946052   15.24595427951563
C        10.54723637656221    1.15066233873087   15.80214565005275
C        11.20626905956698    1.50445800123289   17.02657078043055
H        10.97955467493344    2.48163971484886   17.43082038377925
C        12.08577134089095    0.66783065029680   17.62382631122584
H        12.58117150446788    0.95769984254367   18.54056223636437
C        12.40032859743582   -0.59964558326925   17.06439586667452
C        11.76802915235052   -1.00571875135635   15.86209425001205
C        12.15413077597034   -2.24446140141485   15.31805339327290
H        11.73821057512236   -2.57796407896002   14.38059633586979
C        13.07807211088604   -3.04558119828172   15.94229543839664
H        13.35306415365829   -3.99126543861259   15.49787931509812
C        13.67415107875238   -2.64947726141752   17.14074742307369
H        14.39760155124981   -3.29040760334855   17.62196546762260
C        13.34061215287270   -1.43758878959397   17.68602996946586
H        13.80326169942697   -1.10305561260938   18.60375316355785
C         9.38239937930291    2.21860935654467   10.64439558714584
H        10.44292464990653    2.39241486315504   10.78712774459093
C         8.81613866278254    2.14343744415955    9.36576761849867
H         9.44643715858389    2.25560642413780    8.49750073840341
C         7.46546581327335    1.92834623699055    9.23770379497988
H         6.99421007514178    1.86417835513447    8.26737349408281
C         6.68720938702909    1.79457594048818   10.39908240686058
C         7.35139251911271    1.88717311666516   11.64492438625348
C         6.58658521853048    1.78043582477848   12.85361772633187
C         5.18751623327769    1.58322617569516   12.78509326370008
C         4.48984594476820    1.50668319417475   14.00277554503649
H         3.41973341755612    1.35426893141530   13.99613933797112
C         5.18464311034163    1.63258278285517   15.18107622237846
H         4.67948920048100    1.58495552491312   16.13334580593268
C         6.57307361869839    1.82361253199590   15.13451285696159
H         7.15305389500549    1.92908691090351   16.04332183425290
C         5.27783792445231    1.58145114901632   10.36886182494519
H         4.79704706292492    1.50925425352630    9.40433185169285
C         4.55759240662014    1.47995829261953   11.51186341097760
H         3.48886934837669    1.32488949646383   11.48172993640858

