75
CSD_code = HIFHUA | q = 0 | S = 0 | Stoichiometry = C32H38N4Pd | MND = 4
Pd        5.05666564894679   20.43786236157448    7.22773516732107
N         4.75077344897991   19.66419218049873    9.13185787492197
N         4.94692630294573   22.21179419544056    8.02569066916216
N         5.65653455397144   21.52642097508904    5.72751741644760
N         4.95132490105571   18.83791710836517    5.90573156189918
C         5.07053829979308   18.48025102463863    9.64006436788977
C         4.56225694367263   18.33358932492788   10.95977566265924
C         3.92284990564720   19.51538911260647   11.26432099207489
C         4.08694416986579   20.37283436626752   10.12403754769286
C         3.82509080078050   21.73601058026503   10.10222740910040
H         3.30553910650416   22.14709619691869   10.95688823438164
C         4.24584599060839   22.62706855469899    9.11568775295802
C         4.06696289516612   24.03973015005430    9.00361488451455
C         4.65208547300615   24.43414963115532    7.81183994222025
C         5.18983860773207   23.25664721039494    7.20907175411999
C         5.82092384839127   22.84319412324763    5.96556194790580
C         6.65543544951260   23.38546312744062    4.94157270612179
C         6.99123660048684   22.33488923856179    4.10373198639538
C         6.36621165256746   21.16121520942349    4.62539015301700
C         6.40613220966234   19.84003276778238    4.18158806426262
H         6.96186116435286   19.63397515178253    3.27721170176383
C         5.72630091922356   18.77417807266843    4.75576094847337
C         5.52654093542589   17.49135520525355    4.14159439776803
C         4.57441337136345   16.84117348608991    4.89576328811055
C         4.23989859901278   17.71868659990055    5.96364362535032
C         5.93682132873322   17.51031992000242    8.91804462514376
H         6.22771046833223   17.92902849220071    7.95016709749063
H         5.43177515352430   16.55667129171536    8.77056624577323
H         6.83616871426038   17.31954550544954    9.50411953197219
C         4.75018618597940   17.11499750191215   11.79715893674997
H         4.19483983225765   17.19129101990908   12.72803602619703
H         5.80490228212953   16.97733180286726   12.03780326879105
H         4.41216655632775   16.22762395996200   11.26225906281132
C         3.23654811303310   19.89894715908012   12.52900806250154
H         3.04436943870389   19.02240095940591   13.14254472462577
H         2.28720143357334   20.38882970289905   12.31757651605001
H         3.85353811525211   20.58910531275061   13.10596946230948
C         3.39486741149747   24.90954270993074   10.01272214555069
H         2.56618263822263   24.36668375099235   10.47336382392715
H         2.98563178116413   25.79443419672370    9.52114468423168
C         4.37821431931333   25.34678633977803   11.10167688506375
H         4.79148418699191   24.47756964789469   11.60857043913938
H         3.88021258565898   25.97603728545008   11.83627433791510
H         5.20058001136028   25.90843849560394   10.66469784750455
C         4.61132466795575   25.83076556911482    7.27508490713828
H         5.13196461252153   26.50491871306003    7.96349548600232
H         3.56561234259027   26.15524303229882    7.23789810484628
C         5.22837081826897   25.94574092417856    5.88909040532697
H         5.02232773290471   26.93687857270232    5.47929183465083
H         4.75014711017255   25.21412231926220    5.23541402512101
C         6.73943777038407   25.69438113636300    5.92917251974351
H         7.28040634938406   26.64093231864706    5.86481824582317
H         7.01018189012504   25.22507914713830    6.87667483243676
C         7.17844394522289   24.78019217382161    4.79496564922064
H         6.84655345216560   25.19930065397845    3.83910564715260
H         8.27265455354130   24.73629170383626    4.76330755865370
C         7.82375870095670   22.39450059949741    2.86682756294321
H         8.40073940757555   21.47220037355001    2.76652403930170
H         8.52782079418988   23.22605447431861    2.93717836814625
C         6.94778663999562   22.57869823700708    1.62474542403095
H         6.24356334421699   21.75465980656439    1.53361426143740
H         7.56074293829650   22.61571662665592    0.72663820875613
H         6.38091906512887   23.50406044450488    1.69597237636025
C         6.20463974293101   17.02707369932085    2.89961318123044
H         7.28109640761944   17.17680737795840    2.97248042122274
H         5.84306574125428   17.58338788666691    2.03396628318050
H         6.01395850152333   15.97066088869940    2.72949388723597
C         3.95651853624970   15.49973858634608    4.69273065789562
H         4.32351552664411   15.03409166692841    3.78224003747759
H         2.87251683613092   15.58832279861927    4.62191980048548
H         4.18310193616360   14.84293042494466    5.53330589418596
C         3.17125244538169   17.50464050183309    6.97588494322097
H         3.10778415673474   18.37771085945075    7.63183155255789
H         3.35594537610348   16.60948669574990    7.56811508125794
H         2.21351630267302   17.37391077740821    6.47131502267943

