89
CSD_code = HIFJAJ | q = 0 | S = 0 | Stoichiometry = C46H24F10N4O4Zn | MND = 6
Zn       10.02851953186732    1.82775448098719    9.48380243474145
F         9.27325314208425   -1.22173272424701   13.95516083647235
F         9.51406684100581   -1.85554297001470   16.58024266939299
F        11.01281549346717   -0.28414311100303   18.22924521718627
F        12.26911292955728    1.92058893658890   17.23129926073113
F        12.03544641152228    2.54010900784890   14.60475617499763
F         6.70048526110881    0.19442202571795    5.23302169513825
F         6.09331135311404   -1.47806147374624    3.19063605548565
F         7.71335627235362   -3.59997386528954    2.63719518342051
F         9.94099921721616   -4.03817373773838    4.14872111483311
F        10.53561324008967   -2.36608754885410    6.19987373466572
N         9.62202375258050    2.62010963873161   11.21224180251138
N        11.03659673083969    0.33356024475505   10.47933353330746
N        10.57820646620143    1.51032119388360    7.64592616412673
N         8.36854444653653    0.66488392654136    9.11766238025491
O         8.89550730117563    3.70439389254445    8.93230924470684
O         6.01710604133691    9.30632671991816    9.61400587682897
O        11.89264343997041    3.09680352446034    9.27010927602954
O        16.64418253807324    6.28845614219166    6.63312909353713
C         8.90915456660623    3.74887376454904   11.24914641518813
C         8.56229169365670    4.06081859499022   12.59000517923525
H         7.95880630064341    4.88266136198918   12.92194498548912
C         9.11906367253994    3.07769649386378   13.36741311066482
H         9.05792278552434    2.98476548357636   14.43549009608722
C         9.79107838222959    2.18587078584185   12.47903276542671
C        10.51598732284548    1.01692179076069   12.77910658028278
C        11.10374911035960    0.17460231631234   11.85137125478383
C        11.89330745661534   -0.99090130376216   12.14116013056913
H        12.13250160172897   -1.35841837144673   13.12064563706771
C        12.27552998453340   -1.50908459902115   10.94043228206449
H        12.87383652656748   -2.37955583555620   10.75529324892706
C        11.71679554550971   -0.65602978925417    9.95085938456481
H        11.80506134362279   -0.76558277973729    8.88447958958524
C         8.60835343593346    4.33279028057597    9.95507646546823
C         7.93518376885101    5.63947475257609    9.87492716438164
C         7.05496070904592    5.87451511311178    8.82060587848647
H         6.88992974283792    5.08634608034981    8.10142239084993
C         6.38688780386321    7.07633616242937    8.70009734734619
H         5.69890013969145    7.21619106651345    7.88142493943146
C         6.61205099421957    8.09000241799145    9.62983822469293
C         7.52428903237445    7.87193936576701   10.66843941906831
H         7.70472283048354    8.67726042379426   11.36288015762783
C         8.17185579115702    6.66506149146195   10.79322252616174
H         8.89647537319075    6.52487824556335   11.57959984800828
C         5.09847603380223    9.60196774058317    8.58765987901628
H         5.57129032306202    9.55932978351887    7.60172486711454
H         4.75966869792117   10.61840394032493    8.78070934838203
H         4.23969623832671    8.92401372605533    8.61053904356334
C        10.65364777120709    0.67101841653209   14.21362788234105
C        10.02155555519952   -0.44965983960451   14.74654180861235
C        10.13350583053190   -0.77828005122709   16.09377286166257
C        10.89652464311291    0.02365945986186   16.93765301452400
C        11.53614454807926    1.14900911199688   16.42631824285714
C        11.40636670276673    1.46332304205324   15.07682694977188
C        11.66548184016321    2.12841738575635    7.17876930343508
C        11.97248005884610    1.65268073015255    5.87704073171790
H        12.81084621341216    1.93576795161220    5.27138687697449
C        11.00706743501669    0.72814921951352    5.56986505643849
H        10.91609032748137    0.16647025639643    4.65911795737042
C        10.13797919912917    0.65473178615904    6.69923337955526
C         8.98324286863979   -0.13066938946714    6.87873941701778
C         8.16751382446217   -0.11971410759687    7.99672285279907
C         6.99380564840197   -0.92330764155351    8.20225536305048
H         6.59390253188195   -1.63897053242559    7.50989591616120
C         6.51000538255504   -0.59597767875623    9.43315951609273
H         5.64380456699265   -0.98786222139446    9.92925617763501
C         7.39653493537407    0.38536857133476    9.95263232551941
H         7.32778668603581    0.87276201811091   10.90901848843270
C         8.63201407463308   -1.04667281620279    5.76799744684949
C         7.49880553296364   -0.84497050420371    4.98465853616662
C         7.18274222848086   -1.69606734867700    3.92985889563368
C         8.00891070869217   -2.77923028118526    3.64485075884609
C         9.14600966750077   -3.00054589854330    4.41667562561173
C         9.44640893097266   -2.13440998805403    5.46285166238141
C        12.29318755429854    3.05536241986328    8.10389592021678
C        13.40972638891844    3.90433908722664    7.65816337837857
C        13.49381223218210    4.41328923238260    6.36540126902374
H        12.70493035096604    4.21236191476504    5.65748848726197
C        14.55111302886606    5.21914820428509    5.98741811143233
H        14.57978156995429    5.60763674054188    4.98150359460594
C        15.55757044794057    5.52675928170093    6.90107278007759
C        15.46463222724175    5.03533289095560    8.20835527167101
H        16.24415635045648    5.29467898045494    8.90691921176311
C        14.40172746118230    4.24971482398559    8.58164314265742
H        14.32073007023551    3.87370324837813    9.59002726400677
C        16.80644801627914    6.81523034799939    5.33692262569060
H        16.88038376191167    6.02112399846290    4.58749496167538
H        17.74034336466496    7.37417825724362    5.36196842584520
H        15.98756184453597    7.49165811418672    5.07317860033006

