72
CSD_code = HIFJUB | q = 0 | S = 0 | Stoichiometry = C29H35Cl2NO2P2Pt | MND = 4
Pt        2.89850377406947    4.21173478848077    5.66567291349956
Cl        3.87010897918145    5.52179398329702    4.01457347608967
Cl        4.87333499641325    3.90042559851363    6.74871296196815
P         1.18311033150733    4.55126040779442    4.22796029736920
P         1.79836059221946    3.20756781653223    7.39618527080664
O         1.43829771122646    3.77013445665806    2.83128012558182
O        -0.20579348094234    3.80126213986334    4.70015486230057
N         0.67773735590019    6.05111739605135    3.76029007832717
C         1.72178723136854    2.42999141806229    3.07723416031815
C         3.06039632326557    2.03037358425969    3.21189398112850
C         3.34163065793361    0.71461504716713    3.45326150184747
C         2.30270632756719   -0.22417521475296    3.63259823077655
C         2.58139370125926   -1.57383839673360    3.93528598709850
C         1.57230707658379   -2.46295369615911    4.17706476352025
C         0.23705844963701   -2.03430214053090    4.14403912820796
C        -0.06895431456137   -0.73734151158414    3.83743614913437
C         0.94779520979437    0.19643582196608    3.54482620011391
C         0.66873738318153    1.55386953526630    3.22179204102320
C        -1.07758703453154    3.19144280330194    3.81943737738722
C        -2.38566585608962    3.70201106153149    3.75548568479521
C        -3.31012878006059    3.12275644959868    2.93721883822640
C        -2.95495418019286    2.03891431814435    2.10693102829177
C        -3.87966733996416    1.46779590782824    1.20818253487412
C        -3.50902522517239    0.45373821207419    0.37090053467164
C        -2.18918917926911   -0.02025538145777    0.38728070910375
C        -1.27302873205336    0.50150002712391    1.25770934919595
C        -1.63187472294259    1.52602256126693    2.16005090207110
C        -0.70090676824747    2.08685109817165    3.08004384380831
C        -0.03595792872399    6.28689980285814    2.50526340304584
C         0.93564187240202    6.57862603303070    1.36759450552345
C        -1.01650036311620    7.43751801213344    2.71312727840448
C         0.38751788611364    4.29219594163778    7.86672308248418
C         0.88088392555619    5.72214440791766    8.05765150237543
C         2.75957538434875    2.98945288831271    8.94720408245658
C         1.98698823175006    2.44849855116054   10.14306170982331
C         0.99782565878666    1.57612553145605    7.09833762207475
C         2.05240067802744    0.48718298494337    6.94027189297958
H         3.83914480391474    2.76825787298342    3.08245629261716
H         4.36542718879470    0.38321210142604    3.53804945778777
H         3.61393593252711   -1.88703996962844    3.98418775943823
H         1.79499236544595   -3.49371318839447    4.40938623654776
H        -0.55223346170530   -2.73738726367517    4.36557111642845
H        -1.09875795445782   -0.41410545578227    3.82318442624259
H        -2.62656009940267    4.55391541127449    4.37258240408588
H        -4.31985295930372    3.50360236679673    2.89671995861235
H        -4.88707796733529    1.85807143896379    1.18902029839850
H        -4.22184394174939    0.02286559128813   -0.31624672060443
H        -1.89712540399924   -0.80110081785062   -0.29898976775816
H        -0.25664792992194    0.13929165797258    1.25167372313190
H        -0.59576670014801    5.37227966666817    2.27924727276323
H         1.64574079051341    5.76191718927193    1.26799067052177
H         0.39835462010638    6.69734319101569    0.43000696205748
H         1.48947941408413    7.49240621722140    1.57397856045740
H        -0.47614724557681    8.35314902159693    2.94213489901377
H        -1.60464926140199    7.59424731631343    1.81290741807564
H        -1.68840894758205    7.21709357806344    3.53844723499514
H        -0.32995070949303    4.25028360169287    7.04527526401594
H        -0.09831399705997    3.91498733970185    8.76936641635972
H         1.50666613334745    5.80456917580341    8.94361205174689
H         1.47672209856992    6.02340604789625    7.18916719505748
H         0.04657615703091    6.41290712606484    8.15909574145430
H         3.59858955245234    2.33669830230710    8.69518818975088
H         3.19262656786638    3.96677711242559    9.17539207765708
H         1.19115991335501    3.12585660445114   10.44363646547444
H         1.55169903137734    1.47521209358077    9.92961285471127
H         2.66398671426662    2.33534727767758   10.98740900682625
H         0.30659249341737    1.35002086212509    7.91398143451933
H         0.41548202099542    1.67234592604545    6.17903192158927
H         1.61114714310310   -0.42321597035891    6.54025860167311
H         2.82983719237503    0.82476048152962    6.25475583731604
H         2.51842391486363    0.25349639867952    7.89449830562091
H         1.37648669844845    6.76034944967969    3.94317242261612

