96
CSD_code = HIFPES | q = 0 | S = 0 | Stoichiometry = C43H44Cl2N5PRu | MND = 6
Ru        6.65252069331761    3.00274860179097   10.79205121354920
Cl        8.43521389690645    2.74003102978556   12.36020149144129
Cl        4.84171841894859    3.06853125056656    9.26220495641467
P         6.51389088248175    5.33669028216688   11.21936051688186
N         6.86871145066963    1.15633054269657   10.51952819564062
N         7.94008113139977    3.01224673762390    9.20523221371893
N         9.79678986998609    7.66102716623466    6.70514434453925
N         5.39355587628037    2.27620947622796   12.21234145590944
N         2.00782566228136    5.26591369219140   15.50682006005798
C         6.25970723566043    0.29749717100664   11.35346549923738
C         6.49055720253732   -1.07490464580175   11.25362058796006
H         6.00524222434771   -1.75966836034770   11.92929255738522
C         7.36453915662583   -1.53488831906592   10.28036945491442
H         7.56072032575467   -2.59206106753507   10.18732531662503
C         7.99514000664658   -0.63585580234784    9.43484265494261
H         8.69042773048599   -0.97787863532209    8.68604702353217
C         7.72828258127515    0.72713364109973    9.57995375660096
C         8.28793907277241    1.81850810312006    8.81705665434519
C         9.15139461942887    1.52562767077762    7.62707265781942
H         9.26127257766901    2.40792391457506    7.00150847251014
H         8.70131293318638    0.72721177953261    7.03961855606810
H        10.14008191439264    1.19696220264334    7.94740370833328
C         8.42697797082677    4.14249160600001    8.53861123092882
C         9.78955010586363    4.42900592085971    8.47436457348444
H        10.49750814880646    3.75584531109775    8.93592640169840
C        10.23798747884251    5.59229949117953    7.88877523551234
H        11.29696548672097    5.78756461711258    7.89776906804385
C         9.34830613264094    6.49943344765469    7.29660670298950
C         7.98791755365432    6.15852242087416    7.30347771856498
H         7.26033466286947    6.78888062010523    6.82126048429296
C         7.53329891187245    5.02070635644219    7.93262203680937
H         6.47769348522700    4.78719349073433    7.94270951230494
C        11.14379770511545    8.10472562664066    6.97943443725195
H        11.31055216295694    9.06754137536740    6.50196090248192
H        11.86602739564628    7.39893148651586    6.56464690214302
H        11.33191285138391    8.21142968437639    8.05473434149072
C         8.83654241621031    8.67557236816653    6.33966973779677
H         9.35871857019451    9.52198313758544    5.89882292094282
H         8.25975520851204    9.03314212889268    7.20193138907791
H         8.14401497179617    8.28697069010521    5.59153217514875
C         5.39870940493729    0.98011443313553   12.29283063391923
C         4.56796703820173    0.18773322593038   13.25535678993106
H         3.86136754485244    0.82754262171278   13.77746325257922
H         5.21446375969765   -0.29411529023687   13.98870252864594
H         4.02141242412760   -0.58686273613355   12.71983021137021
C         4.55013403544729    3.01737896044567   13.05797315134727
C         4.89142884054360    3.26419663546179   14.38325099760275
H         5.82738946839509    2.88486277291194   14.76608400949078
C         4.05798369535714    4.00369765277898   15.19435901097393
H         4.36819212477305    4.18592122084140   16.20939885228160
C         2.85180052096408    4.52736243522727   14.71107955832535
C         2.50420672670282    4.23602490148908   13.38410384860935
H         1.56442220517573    4.57601800892132   12.98080698292330
C         3.33202863096839    3.48710909110259   12.57605279917835
H         3.03861355494392    3.23538744967193   11.56629661386195
C         2.33588118734622    5.50791289295101   16.88864922884819
H         1.47143080957245    5.94073634230842   17.38920349377325
H         3.18798048148546    6.18901860431843   17.00604988191188
H         2.57041536360820    4.56582781436326   17.38587546328100
C         1.03620958684884    6.13655382541748   14.88718633568915
H         0.70873837241814    6.88624741409544   15.60419787040674
H         0.15599324056316    5.57473094161131   14.55800695794011
H         1.46271306519980    6.65330403756635   14.02246318593780
C         8.03652309637413    6.35934857174613   11.19890177108108
C         9.28890226418529    5.76814812192982   11.12187225584475
H         9.36631432024984    4.69202074971039   11.08793294520473
C        10.43337021309090    6.54774625518412   11.13126420137595
H        11.40294647853127    6.07553596420447   11.07058459015791
C        10.33646819423902    7.92390800918129   11.22395128903320
H        11.22820958431713    8.53491644244727   11.22218685974591
C         9.09021987547655    8.51845698110903   11.35106718824272
H         9.01109076968247    9.59116909847141   11.45855241886582
C         7.94792355538748    7.74224857516608   11.35339160899047
H         6.98065930876918    8.20770143891504   11.48490891021969
C         5.37450822481644    6.29793891529609   10.16518554370503
C         5.77927694829956    7.28112500397866    9.27069527323910
H         6.82427466186480    7.53771633088284    9.18575148681525
C         4.84800122785124    7.92511801823350    8.47462620252689
H         5.17367824909490    8.68965866660027    7.78248629136884
C         3.50682525061762    7.59242206439536    8.55480855250409
H         2.78536905979026    8.09354995472573    7.92571532377001
C         3.09667395750288    6.60837065304779    9.43894557506141
H         2.05322503202844    6.33548535648400    9.50004266606266
C         4.02413667657798    5.96431858522625   10.23565089370790
H         3.71436234065030    5.18799379879435   10.91820127713522
C         6.03401861235188    5.90266128538090   12.90037030470356
C         4.98027180386779    6.76006602473030   13.18547124263124
H         4.30057938050146    7.06936312998631   12.40461141088675
C         4.80379089475769    7.23596968849851   14.47399211221649
H         3.98567574550493    7.91066878248472   14.68574947539560
C         5.67717388805219    6.86910718270936   15.48199456445460
H         5.54777583823476    7.26024435140008   16.48168394539057
C         6.72271745237523    6.00280761814426   15.20550434448252
H         7.40394119733817    5.70802150234446   15.99047102824313
C         6.89885859896884    5.51984969411538   13.92410341546279
H         7.71216853431774    4.84166371722192   13.70018625327082

