86
CSD_code = HIFQAP | q = 0 | S = 0 | Stoichiometry = C39H41Cl2N2PPd | MND = 4
Pd       12.78763239454698    7.89946110768935    4.60044572543168
Cl       10.62999481444637    8.56878635131081    5.00612142251704
Cl       14.90515670481240    7.04772244112166    4.23913690161784
P        12.78998139760369    6.60116999742724    6.44990306189481
N        13.75744580030293    9.97504775372782    2.79199208347757
N        12.01203015580755    8.99749606379837    1.95378166206046
C        12.85906230085452    9.01309150929949    2.97327297509032
C        13.50739125687194   10.75082372991741    1.57850578760646
H        14.39436380907021   10.79266106513228    0.94475288132140
H        13.22990474277218   11.77620964634234    1.84969872675952
C        12.34867077226935    9.98521728037896    0.93028768371613
H        11.49397942336810   10.62539529522682    0.70644046655596
H        12.64664038224001    9.47376381284259    0.00749510880781
C        14.84786649241630   10.23931192794426    3.66552774729098
C        14.60803190371082   10.75816286107020    4.94132801119623
C        15.69238192146212   11.00880199509722    5.77399194068445
H        15.50766783157502   11.40535034127286    6.76290153175923
C        16.99223289332143   10.75298336617809    5.37143689654314
C        17.20169723355544   10.22092063671679    4.10666119804612
H        18.20901831563066    9.98942084369265    3.79156384513332
C        16.15059730752956    9.94912333429232    3.24699419697706
C        13.21745627572524   11.02164722749484    5.44020294296073
H        12.56392990564283   11.38138234500301    4.64589663318592
H        13.23350521252008   11.75590234319886    6.24272258716976
H        12.77736672901956   10.09057185364180    5.84188566670263
C        18.15526276025004   11.01768698558561    6.27880848897653
H        18.86887068354184   11.68521892824199    5.79762198533665
H        18.67381465422552   10.08637113281321    6.50475791106443
H        17.82890787939085   11.47191467554503    7.21132267610410
C        16.42054945625822    9.30801093248645    1.91981479032944
H        16.49913061129298   10.05377301706586    1.12682988639903
H        15.62866981304886    8.60397281573052    1.67422937273384
H        17.35861736036290    8.76109151388357    1.95974433535369
C        10.94676602138485    8.06708890904015    1.81175823414589
C        11.24756163987781    6.71622517387192    1.60441826036397
C        10.19976851802173    5.81606477309583    1.48462290105672
H        10.42200049571441    4.77039559524009    1.32366571292641
C         8.87581555698777    6.22437748965898    1.56155992169012
C         8.60737570585385    7.56879904443522    1.76200414223703
H         7.58170700113165    7.90056824801532    1.83678173956947
C         9.62368989022565    8.50357585473783    1.89554798469420
C        12.66705844077454    6.24416366831589    1.49787895564166
H        12.70240555385906    5.21675553277880    1.14466926061714
H        13.16463300186395    6.28340797154053    2.47572643433316
H        13.23724181014090    6.86867556901074    0.81031645630906
C         7.76815617118962    5.22098701992039    1.45096662992616
H         6.81456261499008    5.71155174782806    1.27228887660328
H         7.69042978441834    4.65072352408125    2.37702835252844
H         7.96232840654635    4.51976412013253    0.64104824806744
C         9.28842021562570    9.94007341539002    2.15683202639564
H         9.30092952867280   10.52149369049036    1.23318651039267
H         9.99716583488790   10.36820359709458    2.86193116240259
H         8.29423252876683   10.01563815866352    2.58860519323688
C        14.10690850545184    6.84289819363867    7.67746018793069
C        14.18912019599408    6.06128483615327    8.82638840471631
H        13.46216494634997    5.27798002885293    8.99706111047232
C        15.19146861928197    6.29990832902702    9.74771990999614
H        15.26219051124264    5.68885641056313   10.63623284981771
C        16.10260950112013    7.32389695435978    9.53637412894536
H        16.88454636078728    7.50385012757513   10.25997583712540
C        16.00612826853673    8.11947332077531    8.40712332100883
H        16.70812508483523    8.92419492542921    8.24663105055505
C        15.00727699362326    7.88336169860604    7.47953719762072
H        14.92826934097639    8.49715493098058    6.58685061153006
C        12.95790752620571    4.92459884260113    5.77130344746422
C        12.13903358450796    4.68121484284491    4.66628797842303
H        11.45931979884358    5.46532862733191    4.31918996022628
C        12.19044117286491    3.45866033834544    4.02540588815970
H        11.55265828057064    3.26564770489279    3.17522012708669
C        13.06974124045793    2.48261570527653    4.47009948678420
H        13.11758801232015    1.52902662277490    3.96446430207454
C        13.89799723744627    2.73260603630558    5.55089633050797
H        14.59388223048871    1.97609071975583    5.88393612709290
C        13.84641295616818    3.95212091585303    6.20558573760030
H        14.50771464010179    4.15296797423495    7.03620975302785
C        11.34984370252954    6.45797563940460    7.55501743440718
C        10.58751136762396    5.30627528664134    7.69472800588048
H        10.84313000570540    4.41514520877598    7.13730206002093
C         9.49770686183666    5.30311693138398    8.54842767336192
H         8.90572725405234    4.40546498045965    8.65692839479730
C         9.16231477525895    6.44404133468232    9.25693317926442
H         8.30742703471125    6.43695554764192    9.91736799728266
C         9.91707733098164    7.59804360948408    9.11297699276136
H         9.64962303352129    8.49149914498330    9.65798890488347
C        11.00543505981480    7.60539441986835    8.26398982061503
H        11.59582064938177    8.50425157596142    8.12997165460949

