73
CSD_code = HIFRIA | q = 0 | S = 0 | Stoichiometry = C22H46N2NiP2 | MND = 4
Ni        0.82385592032156    1.63156363986858    3.50956200833586
P         1.17828380420449   -0.29235534178049    4.48681171678975
P        -0.90449446498251    2.90129113889492    3.93792136505689
N         1.60882400465661    1.06783262106276    1.69165372180258
N         2.13118364032241    3.18903627254405    3.18679368701186
C         3.62527557002151    1.45914284084183    0.31117028840240
H         4.07715836461048    0.50491077279290    0.58408717310838
H         4.42320304707558    2.19143854195702    0.24812718018546
H         3.17063820505628    1.33956311325077   -0.67382688472970
C         2.59138719220017    1.84753482074426    1.33348931314497
C         2.66414567396934    3.12653863951002    1.99781016946861
C         3.30183614531255    4.30587018575005    1.31410254556498
H         2.60361964035828    5.14322815174888    1.28991876120312
H         3.57297520148811    4.07785239119762    0.28873516508878
H         4.19140906222227    4.63313172973632    1.85518221454237
C         1.48961986671159   -0.23259547119314    1.08375755289087
H         2.46333361353095   -0.72886860929643    0.95785856020672
H         1.05945062098588   -0.10087280654018    0.07975793431792
C         0.57962826360068   -1.15026940240759    1.89688523698082
H         0.30576258760332   -2.01057155308999    1.27954908729149
H        -0.32988103522923   -0.59463134900387    2.14816191756656
C         1.24916322358671   -1.62459527113258    3.18812650259974
H         2.28905152426636   -1.89318769797042    2.99169688827566
H         0.73852682575176   -2.51677696188043    3.55302871095264
C         0.02627261735948   -1.10218999263722    5.72894213469074
H        -0.06676480202057   -0.37549700550346    6.54415357933823
C        -1.34311546347801   -1.23615179352318    5.06630813702987
H        -1.36151849242372   -2.07379758925539    4.37217182287615
H        -1.56720782330514   -0.32571158918920    4.50955782097245
H        -2.12307324214747   -1.39412836438699    5.80982264924729
C         0.48103081752084   -2.42905582233128    6.32632590914838
H        -0.30682358108067   -2.82507459101471    6.96696782253834
H         1.37568711637821   -2.30960659648993    6.93171284840424
H         0.68535875402355   -3.16928445964794    5.55590887287246
C         2.84424763985725   -0.49216012620237    5.30732275149734
H         3.04069297918362   -1.55096287691329    5.51015082227584
C         3.90657079908940    0.06079833626034    4.36320306074302
H         3.63162803662100    1.07583265225981    4.07292603334956
H         3.99125731454217   -0.54004293126826    3.45999696014669
H         4.88190071028702    0.08449757253057    4.84844001337471
C         2.85163420576960    0.31198698723725    6.60321245892117
H         3.84792316040058    0.32456170856110    7.04409887072796
H         2.15935369053202   -0.09583091625587    7.33636673325048
H         2.55905337946549    1.33930309419680    6.38494681454978
C         2.14919649414270    4.44218037113261    3.89685932073302
H         1.94170575803279    5.30032307010937    3.24051295779723
H         3.15888221198269    4.58508055061602    4.30982170439278
C         1.13889885441060    4.45269608544621    5.04162907991432
H         1.36565647083698    5.29415832745028    5.70248392257696
H         1.25279175630101    3.52181743964150    5.60685186301093
C        -0.30081833119511    4.55814459818675    4.53481924221394
H        -0.35721430102473    5.28521642349414    3.72227973317398
H        -0.94359537968096    4.91138890841981    5.34222818352135
C        -2.21725739279978    2.54207137972275    5.23160472110754
H        -2.63649034867628    1.57020930858538    4.94704279729770
C        -3.36541467996507    3.53886185011443    5.34301783689871
H        -4.01057100655872    3.25432831281653    6.17414381390750
H        -3.97052725340069    3.55484961497833    4.44039440772020
H        -3.00662527696844    4.54810405722883    5.53245913289805
C        -1.50621441029140    2.36783513559086    6.57181956376815
H        -1.22561188649851    3.33070983568909    6.99363718209766
H        -0.59908141710337    1.78018021034085    6.42746768672812
H        -2.14568023045257    1.85598732180053    7.28958881581791
C        -1.93350384743483    3.39772419584879    2.46031526368956
H        -2.58104345201014    4.24339925825857    2.71789147320274
C        -2.76736904207472    2.19947663922756    2.01879627246716
H        -3.28306947576465    2.41193086382071    1.08284027403312
H        -3.51154962372059    1.92782040970877    2.76407440133706
H        -2.10736012094984    1.34606402186620    1.86176006676609
C        -0.98410954647363    3.79496372108922    1.33489433347690
H        -0.26447498360129    2.99060714429282    1.17526013898020
H        -0.43274601326265    4.70106324765964    1.57756300876180
H        -1.53146784025713    3.96781160470217    0.40874586986675

