69
CSD_code = HIFTIC | q = 0 | S = 0 | Stoichiometry = C26H35FeN5Si2 | MND = 3
Fe        2.24863201478964    5.83868396341708    8.21619649625383
N         1.30995414528075    5.11990204086922    6.80407007771254
N         1.90807578660237    6.68607652472750    9.84810854034565
N         2.61242918786220    7.11900768021458   10.83005265112448
N         4.63341624770070    6.69933191056633    9.70589159022554
N         4.03869656527971    6.09855228141260    8.73686540634902
C         3.94045549086685    7.16250044382545   10.74109345902363
C         4.67967514286295    7.75867221682325   11.84768437569583
C         4.00613568924887    8.33349146587276   12.92524329107881
H         2.92721111890463    8.32945887278690   12.92685751341443
C         4.70950091331317    8.89895184510339   13.96873450462950
H         4.17376814258289    9.34086479843289   14.79754950340186
C         6.10037119733823    8.91117874043749   13.97292924965420
C         6.76880987006270    8.33764109742730   12.89759054064900
H         7.85004130826441    8.33623166678918   12.88426801758094
C         6.07383647524684    7.76829160359302   11.84960815023480
H         6.59931993996348    7.32044044435123   11.02048034569103
C         6.85489040066867    9.54865957072129   15.10041280335223
H         6.92647479268981   10.62541561021666   14.94090902406463
H         7.86427936880573    9.14962081129575   15.16792901834494
H         6.34604870857484    9.38498907365651   16.04813618495065
C         0.54017946407554    6.55561975581218   10.05372136229209
C        -0.33563702382177    6.80655482239825    8.99087310226472
H         0.06107639079443    7.17488674251411    8.05527726102623
C        -1.69371890758950    6.61944497333217    9.16028208697608
H        -2.36698600209654    6.81830438921399    8.33914934369495
C        -2.19947008983659    6.20194860175201   10.38199868858180
H        -3.26195735141709    6.05888930305894   10.50907791846119
C        -1.33762481894968    5.98789716365867   11.44752176969620
H        -1.73097114696387    5.67891394397434   12.40479620983435
C         0.02214870548697    6.16368674400857   11.29259272388148
H         0.70706423239671    6.00000338814632   12.11084426169020
C         4.81700902848808    5.74958678051960    7.63995577634193
C         5.89294982009881    6.54360533204720    7.22819619056030
H         6.13133749826387    7.42713393761468    7.80060776350479
C         6.62403591952619    6.19194985984819    6.11257903239366
H         7.45128825210729    6.81155449935358    5.79898388881554
C         6.30257552431917    5.05080322677230    5.39268147437380
H         6.87631940748910    4.78253469117377    4.51847707391666
C         5.25201612953874    4.24761153272844    5.80967231196925
H         5.01651316566605    3.34518882268855    5.26511633937218
C         4.51530861091890    4.58242048218851    6.92891569842495
H         3.72501952572745    3.93601996269879    7.28384813606716
Si        1.24682986766974    6.12100174561317    5.40259143919683
C         1.97224398426120    7.78843407195266    6.01374092882438
H         1.19501733191123    8.50490713654669    6.25756465423725
H         2.60692775362016    8.24371006717191    5.26211317822862
H         2.58385069441504    7.64673017565413    6.91070750891244
C         2.32430233124414    5.45530449010644    3.97446566254944
H         3.37395473533541    5.43205525566315    4.24897475756191
H         2.22459143863141    6.07373116649372    3.08816895753615
H         2.03144983539355    4.44604989775431    3.70642180760514
C        -0.53064417800977    6.38442227344231    4.75496648508582
H        -0.89232482604979    5.49005970520828    4.25908090687771
H        -0.56976395701502    7.19651344899137    4.03592865377053
H        -1.22232179547274    6.61630819787415    5.55791784761851
Si        0.66263178572794    3.55998577854231    7.14635386633695
C         1.22332526642647    3.26671816087711    8.95555322753924
H         2.20547179487669    3.70774807904762    9.14990064050212
H         1.29171309416108    2.21218448038309    9.19688233317908
H         0.51922849797857    3.71597816080055    9.64899771364044
C         1.35427313544116    2.20030547806160    5.99418887720880
H         1.00476253343427    2.35213874730317    4.97837874842020
H         1.02547425056103    1.21517344913662    6.30960160802854
H         2.43881608067527    2.19576016797092    5.96921717612437
C        -1.24194903173395    3.49283929773515    7.07208838543579
H        -1.68850930496754    4.22226443508036    7.73958083835374
H        -1.60898097471725    2.51239592182126    7.35791085353663
H        -1.59816918495026    3.69865859275439    6.06892378581022

