33
CSD_code = HIGBOP | q = 0 | S = 0 | Stoichiometry = C16H12ClFN2Pt | MND = 4
Pt        0.41762360738596    7.90408519305441    2.23847361697256
Cl       -0.62226766635936    9.82941217682298    3.09208315027781
N        -1.09999581054812    6.67230863566658    2.55162081440462
C        -2.26312592904453    7.03936150881272    3.08529246252127
H        -2.35467781994311    8.08215331331393    3.36358029095218
C        -3.30781728625105    6.15445415831431    3.28067953475143
H        -4.23115947649903    6.49923321638708    3.71682690886934
C        -3.13854833868871    4.83016611808948    2.90400349084969
H        -3.93268215404165    4.11149504742343    3.03931661953753
C        -1.93196226832636    4.44526965798679    2.35129678739421
H        -1.77517635237538    3.42242418557114    2.05030397596047
C        -0.91387129147281    5.38157159724742    2.18070730672043
C         0.40000264110644    5.10167876792911    1.61331345947421
C         0.81426829951497    3.84443726732315    1.17756447186012
H         0.15650787907591    2.99111570881473    1.24316930849396
C         2.08045187407626    3.67338121348085    0.65486212982130
H         2.42627979896504    2.71157551938750    0.31116587908194
F         4.15662797481573    4.61470409651478    0.06659060653658
C         2.91441791018266    4.77556909588387    0.57792638909487
C         2.52692676405078    6.03282780162271    1.00417809652592
H         3.23389340987571    6.84589678536355    0.91261313842014
C         1.25519179867124    6.22502440327747    1.53443762018615
N         1.92108091178404    9.08860111094042    1.91308554589462
C         2.86117286122185    9.26684660973086    2.84423936457292
H         2.81832789009773    8.60620869053570    3.70442896070381
C         3.83547508415307   10.24127269760055    2.73640558685706
H         4.57117559632359   10.35492101347893    3.51672786329388
C         3.84440010719441   11.06513058243631    1.62060904541011
H         4.58902809993285   11.83799473470004    1.50961695575634
C         2.86961111481280   10.87258101271364    0.65272727519654
H         2.83372204217479   11.49071142701982   -0.23019848710872
C         1.92878083350708    9.87695547682255    0.83556023524632
H         1.14381789462612    9.70313117573450    0.10619159546897

