75
CSD_code = HIGCOP | q = 1 | S = 0 | Stoichiometry = C38H34AuP2(1+) | MND = 2
Au       11.10858432459611    7.85787049448170   11.10031811480430
P        11.61649927563540    8.71128059849289   13.99653641088130
P         8.65236403423748    8.86377989224943    9.39990754458082
C        12.48005623248619    8.02588669609042   12.62611579858273
H        12.89942828881819    7.06716068791030   12.93510764066824
H        13.30247480397003    8.70703566500836   12.39992932852569
C         9.82196160806963    7.55067225769736    9.51978595695732
H        10.36566740086019    7.54154999975075    8.57235742283741
H         9.24987474708555    6.62194913981005    9.58956561828752
C        11.05860120429880   10.38243435125709   13.60916183084257
C         9.71850870859220   10.74330891168905   13.56046256185975
H         8.95188812734706   10.00764006319430   13.75871341475365
C         9.37561920238481   12.05082206905786   13.25962539123617
H         8.33538867390840   12.33563174479817   13.23183198040576
C        10.35980938810655   12.99101453738784   13.00395078460628
H        10.08472596426780   14.00967611034184   12.77745060386930
C        11.69820876104368   12.62816653938306   13.04306188475485
H        12.46601187531794   13.36237334370642   12.85020054247424
C        12.04960028670163   11.32640920405814   13.34472504723777
H        13.09045031237491   11.03389369589426   13.39083994091908
C        12.62062869358570    8.87757022454945   15.50690392541632
C        13.34160974083578    7.75099457763484   15.89519205159417
H        13.28840268562085    6.85154743962606   15.29528191923445
C        14.11466956879522    7.78495482131909   17.03966382008058
H        14.67543403480419    6.91246696761811   17.33804124402022
C        14.16806313750201    8.94193406334487   17.80189892299789
H        14.77363918970846    8.97063888771760   18.69446480160945
C        13.44381051928549   10.06030282876528   17.42260384329816
H        13.48283789742443   10.95819077034209   18.02053902931771
C        12.66638438342304   10.03366564031906   16.27808252851298
H        12.10053976303834   10.90765031147095   15.98633253941402
C        10.23283890597970    7.70686817192398   14.57297080006236
C         9.96306985808172    6.45458540438546   14.03726197973945
H        10.54421865835703    6.09113955853337   13.20125259897116
C         8.95062071445622    5.68210496863327   14.57971932386750
H         8.74211020479326    4.70541909067108   14.16968450772975
C         8.21268236043339    6.15591093292798   15.65280825061503
H         7.42594450552466    5.54893672865370   16.07472919234252
C         8.48982778938922    7.40220477993037   16.19589497246415
H         7.92118522784786    7.76414327357586   17.03895574221288
C         9.50501639076153    8.17478295029892   15.66563438773717
H         9.74767221994147    9.13738597228269   16.09686394422976
C         7.76726389667517    9.15731059073338   10.94583003133404
C         7.14072678161855   10.38276239335097   11.15631105193538
H         7.25457675565886   11.17415890949229   10.42704742777158
C         6.37700037950476   10.57561541979225   12.29343503745690
H         5.87864820005767   11.52001231310866   12.45416663725863
C         6.23908386000855    9.55202032123382   13.21866468501806
H         5.63999128409413    9.70386063868026   14.10357564289986
C         6.86243961537903    8.33167408529678   13.00790437307486
H         6.74916725203649    7.53438176231654   13.72668813464754
C         7.62421570242811    8.12999305767219   11.87074498355200
H         8.10840083134662    7.17979800337886   11.69821509470482
C         7.35630956244908    8.53943937329731    8.16571399158993
C         6.01241679913800    8.81329039017960    8.39599580620549
H         5.69792011095853    9.24959978719304    9.33310422225296
C         5.07659581946420    8.52097633755277    7.41916591216460
H         4.03369178808912    8.73308070505999    7.59909381797324
C         5.47277072313087    7.95721709732933    6.21738537131748
H         4.73811779360980    7.73098307221530    5.46022504168122
C         6.81122107431765    7.67769127341021    5.98777343032857
H         7.12042193106809    7.23441737638937    5.05349869891113
C         7.75156436195846    7.96252645646839    6.95961434173689
H         8.79658889221522    7.73969712519450    6.78910562461826
C         9.45081353068253   10.41180285492089    8.92476800933155
C        10.25855621253116   11.05726247777479    9.85631538588740
H        10.36519159868910   10.64085104722626   10.84886860564026
C        10.91564384667798   12.22097354132659    9.50528762533094
H        11.54334218603511   12.71900642835270   10.22822699766578
C        10.76746051105517   12.74495215167111    8.23021976508270
H        11.28236525178131   13.65344782096941    7.95819327013378
C         9.95759006296254   12.10675782965998    7.30514346502274
H         9.83999549643124   12.51718917445246    6.31398394650774
C         9.29599551064152   10.94048634051234    7.64794889626433
H         8.66008270761967   10.44410947700881    6.92845653014367

