101
CSD_code = HIGFIP | q = 0 | S = 0 | Stoichiometry = C41H54Cl2N2ORu | MND = 5
Cl        7.56084734772219    3.15455149468164   17.58202886728104
Cl        5.57167654301782    1.41514462184301   13.89092020994070
Ru        6.26796617229013    2.16449498207419   15.94771096393895
C         5.11820720059111    3.80012999936726   15.93050072116212
N         4.11324914801581    4.15897604058220   16.73064875932598
C         3.32894439765649    3.36149600064886   17.60381968549799
C         2.28265258245859    2.60713306081671   17.06216521526808
C         2.08855616046245    2.54208850168837   15.57878260153157
H         1.24813238630730    1.90056289309408   15.32921850257261
H         2.98801121033474    2.13610974383300   15.11152650469856
H         1.90508564262616    3.53044035620640   15.15943196308865
C         1.47921793032140    1.87579478572879   17.92134964107394
H         0.67196374966640    1.28363175075044   17.51442910395922
C         1.69820089682545    1.87563618056829   19.29381646770647
C         0.80839236946226    1.07669292782849   20.19724300661797
H         0.66590470851089    0.07160627372741   19.80449593379723
H        -0.17196168440677    1.54772272360617   20.26868928513105
H         1.22876913832479    1.00771986762082   21.19725394683668
C         2.74723244703825    2.62504273329519   19.80168234010149
H         2.93631768649346    2.62180791026503   20.86569887317804
C         3.57126238271391    3.37901876425604   18.97581623200531
C         4.70591307804215    4.16927234390620   19.54641548948836
H         5.59557600751710    4.05067180898264   18.93019893671400
H         4.93357736328025    3.83491011747207   20.55483507230794
H         4.45788119615919    5.23012875598310   19.58945715181765
C         3.69964145477312    5.54873525855702   16.54877673125409
H         3.86879211283214    6.11234115322785   17.47093389406560
H         2.63310051175262    5.59828235364756   16.30897612898553
C         4.59479857545844    6.01892730617830   15.40611619647905
H         4.03531887248506    6.26403307674458   14.49680356628136
H         5.20516550340647    6.88419933270211   15.67704809070002
N         5.44138067539341    4.85415562445474   15.17271436285014
C         6.33957907116663    4.89684876287914   14.06856703400043
C         5.88788546107491    4.51848020662118   12.80095735920777
C         4.48215112758497    4.06252328718527   12.55432482485929
H         3.91658920092492    4.86668518551315   12.07932153660061
H         3.98478575145817    3.77177951479121   13.47411167919614
H         4.47949311070932    3.20434840839029   11.88786196406852
C         6.75725352866730    4.63980391053945   11.72518514614221
H         6.42036106482381    4.32521315730172   10.74796129129743
C         8.02531158628789    5.17830036018025   11.87017889544203
C         8.95110491147094    5.28912302275849   10.69733522833981
H         8.39281812255279    5.38916703987426    9.76986422655471
H         9.56494173170809    4.39052236811697   10.62569682307145
H         9.61649478271322    6.14269378160877   10.80569829998955
C         8.42355360315026    5.61104801968685   13.12823880972645
H         9.39074343337651    6.08008985417299   13.24823156248851
C         7.60237275691743    5.47555018059464   14.23759493892697
C         8.04836580805483    5.98483993149122   15.57369670529090
H         9.11796320228056    6.17886106665358   15.56885773141468
H         7.82575683147055    5.26629013379042   16.36235026472066
H         7.53873156573689    6.91844449143630   15.81566778255062
C         5.21982020568140    1.04397803549174   17.05987108758525
H         4.15595338020753    1.10143908625916   17.28362519255073
C         5.92220359520804    0.04315634429970   17.77641002723141
C         5.37284370631371   -0.57718958749643   18.91063284195755
H         4.37223977819747   -0.30059968408283   19.21042462837640
C         6.10297328874641   -1.48735082491369   19.64078135867182
H         5.67604720503989   -1.94783593626936   20.51885726344417
C         7.39631971132838   -1.80449329450401   19.25084441453529
H         7.97979851731699   -2.50367121179171   19.83084330281478
C         7.95799897257244   -1.23334378451119   18.12020041372089
H         8.97104115590734   -1.49868263771574   17.85883214797611
C         7.23395966283650   -0.32042838211255   17.36815099817592
O         7.66544439599388    0.30467352072907   16.23881981877737
C         8.63643195460736   -0.32213388540654   15.39521410219171
H         9.12264497363821   -1.13078465854859   15.95300194171138
C         9.71837823052071    0.71658390892034   15.04900253409695
H        10.46174827899931    0.21812774300372   14.41663385296983
C        10.41900733122642    1.17865113813279   16.33205566987339
H         9.69491430942732    1.66468182996756   16.98958156801692
H        10.82632663828291    0.31250994181997   16.86182252289758
C        11.53973956607520    2.16376127373885   16.01981194480526
H        12.00706707485454    2.49236505946852   16.95031469871345
H        12.30566731300809    1.67009646066300   15.41453284099608
C        10.98190769817067    3.36243395789187   15.26158719061756
H        10.24889554696554    3.87074650039653   15.89095097728435
H        11.78264533321437    4.06919801443898   15.03140571946773
C        10.30756412126100    2.89644704740762   13.97640032705336
H        11.04344387938009    2.39442993073885   13.34068891713134
H         9.91398219291035    3.75033071927315   13.42512172934844
C         9.17461061547991    1.92497210422005   14.28503678339978
H         8.40942812230904    2.45045343149197   14.88957345444868
H         8.70342227611134    1.60900715748410   13.35170811560265
C         7.93365911335354   -0.96861134774420   14.18192168665971
H         7.51858746652740   -0.18394717761912   13.54436809612479
C         8.91184725245824   -1.81297079248561   13.36442888431345
H         9.73367400349627   -1.19566569450626   12.99733555395580
H         9.33659024161887   -2.59451277756866   14.00134270921816
C         8.20572252212730   -2.45684800632469   12.17442424912628
H         7.82349744885509   -1.67242647348751   11.51772473508599
H         8.91994274902227   -3.05562261811530   11.60435235355481
C         7.04603079447715   -3.32710237371757   12.64359496471800
H         7.42978272807968   -4.14373955230143   13.26056269316152
H         6.53803515296523   -3.76749933362688   11.78318938909934
C         6.06664393957782   -2.49023528818019   13.45742554394975
H         5.64566689022027   -1.70235917265585   12.82998887425106
H         5.24331513584236   -3.11358063010753   13.81237621334218
C         6.76511117121376   -1.84350321870690   14.64853591844484
H         7.12981056742709   -2.61677856182315   15.33252253073056
H         6.03518337151811   -1.22919772703914   15.18266066811700

