78
CSD_code = HIGFUB | q = 0 | S = 0 | Stoichiometry = C32H40Cl2N2ORu | MND = 5
Ru        3.61342216790212   19.93475022949461    0.32742616334891
Cl        4.47612878147845   21.93836470195381   -0.37303169460805
Cl        2.87895962476357   18.26521934681526    1.74163527406026
C         5.10241530453145   18.79877661799395   -0.34076125523188
N         6.22149033622224   18.74022942925062    0.39365383200818
C         6.53680807375328   19.62069218747050    1.46756455406524
C         7.13123005554483   20.85697866563530    1.18833055969482
C         7.53765544451797   21.24764749282878   -0.20010001789352
H         8.60843213439990   21.07372569133378   -0.32556312084879
H         7.34099018953119   22.30312582504028   -0.36524897093841
H         6.99459417258054   20.68460376997579   -0.95328370364962
C         7.41925037507291   21.70720428639839    2.24707064445017
H         7.85788526148592   22.67149490958647    2.03431985902202
C         7.16684196463192   21.34502470746250    3.56140349215964
C         7.50216502372783   22.27373546592411    4.68992568626928
H         6.81873185781777   22.13716928885746    5.52553841017390
H         7.46249063106625   23.31112915780995    4.36562315428606
H         8.51216434880260   22.07151914338375    5.04842491952240
C         6.65082802541405   20.08211655867575    3.81604233197792
H         6.49362484324980   19.76760225671308    4.83843093858507
C         6.34149061410280   19.20136837324806    2.78960106951703
C         5.88092963233986   17.81186239130617    3.10701134143791
H         6.73004078275214   17.12678306488962    3.07589025580527
H         5.13093771172949   17.46894132575446    2.39777928122260
H         5.45166009772997   17.77189576574072    4.10471122478248
C         7.20096313102770   17.78891035346263   -0.11258882817351
H         7.42118427887864   17.03117860034446    0.64528056215105
H         8.13343877302883   18.30231586039675   -0.36893205758471
C         6.48627635027813   17.20725140534264   -1.33387322268047
H         7.02496106643891   17.38777656435678   -2.26964357984132
H         6.31200577655754   16.13137827653910   -1.24483854750963
N         5.21450750314175   17.92647971860864   -1.33786089291491
C         4.30053781803564   17.69500220341561   -2.39732478247754
C         4.34023569438764   18.52809537943685   -3.51813787219793
C         5.24597752486941   19.71959046050023   -3.53866716450606
H         4.99135750623223   20.37993196980011   -2.70704528287350
H         5.13477724570830   20.27132985959409   -4.46768135901505
H         6.28983174830188   19.42781866742958   -3.43211731797394
C         3.48043457556276   18.25903960233345   -4.57065750452481
H         3.49719349242745   18.89622470714874   -5.44331670300472
C         2.58717231810378   17.19556778327969   -4.52294534142722
C         1.66511807767773   16.93883445889304   -5.67643254217554
H         0.95039804504374   17.75543971328228   -5.77568751145016
H         1.11321438431887   16.01310546993079   -5.53654124740439
H         2.22677887782196   16.87561647402564   -6.60693798598887
C         2.54971693305690   16.40391528437752   -3.38554818470296
H         1.84047820117640   15.59069315558285   -3.32694637134974
C         3.39618196502875   16.63813069209990   -2.31028548385291
C         3.30944554546975   15.81422181633707   -1.06438697524036
H         4.19381225866066   15.19016814597959   -0.93942628221358
H         2.43744622590478   15.16706413759890   -1.09399110885844
H         3.23024728704725   16.46914796448315   -0.19636175440779
C         2.29653057782181   19.72957433360669   -1.02403042902619
H         2.39064247112370   19.23007848520805   -1.98810426795683
C         1.01117886539436   20.25702493938596   -0.74419618587438
C        -0.08773455508548   20.08099473039187   -1.60110676967079
H         0.06875416463330   19.56442927705089   -2.53689840015953
C        -1.34020588806445   20.53343754558717   -1.24692216823120
H        -2.17735659811144   20.38367028607324   -1.91198760054972
C        -1.53174615343903   21.17167940548742   -0.03001428757759
H        -2.51602271159477   21.51361799815171    0.25234551124512
C        -0.46806748028219   21.38132680894277    0.83628692086846
H        -0.64096691239909   21.88190119123196    1.77637771631336
C         0.79750344223509   20.94771867558700    0.48083987553938
O         1.92366716415320   21.13897091535854    1.21113668819194
C         1.83357112366042   21.52453263710763    2.57162402283885
H         1.23785273377669   20.77759647086408    3.11566445532231
H         1.34192509623182   22.50356273193458    2.64790128169491
C         3.25353871307297   21.60365612646207    3.14637078845232
H         3.87423780764757   20.86198194074542    2.60402147325581
C         3.25693531806514   21.22969407685607    4.62386628668516
H         2.61381312240418   21.90338822531050    5.18801331689713
H         4.26598135155593   21.30153777795666    5.02101573025769
H         2.90472855452321   20.20972304855192    4.76224655240947
C         3.85720714932656   22.98621778297602    2.92182000179920
H         3.86687349596594   23.23101093123618    1.86153127027400
H         4.88322138449843   23.00777417889196    3.28009144982953
H         3.28467770354397   23.74381010092704    3.45540788015270

