52
CSD_code = HIGGUZ | q = 0 | S = 0 | Stoichiometry = C17H28N2O4Pd | MND = 4
Pd        4.85848009491922    5.23696946110297   10.56882031385997
C         6.35746828859709    4.09105801392060    9.90551987163614
C         7.67901978295204    4.26128318071410    9.52539387507232
C         8.37336127768998    3.23225796851937    8.87203437325254
C         7.71571908825806    2.02984625462887    8.56010659747307
C         6.38194313494861    1.86308718059577    8.91665836800208
H         5.84850119256727    0.95254439686995    8.69524145583895
C         5.73618837365014    2.88110278383796    9.59321665166642
C         4.34318446673634    2.91164054350684   10.15952244232173
C         4.39797674899706    3.45917631620317   11.51753969521503
H         5.23349539995207    3.09144769138724   12.11800481192305
H         3.44628834075813    3.41014434231841   12.05602164259774
C         3.16582516009422    7.70383609906108   10.58428264945868
H         3.64344178477434    8.25705592231233   11.39894557001241
H         2.19202508481343    8.18278158597133   10.38123154787153
C         4.03377669759017    7.80362130538225    9.32604438496290
H         3.49433755668142    7.36994123843274    8.47839524890017
H         4.20579814940257    8.87017307787658    9.09942782911162
C         9.17381534067684    5.36197913044290   10.94840355151460
H         9.64947026204911    6.33520502449954   11.06743050949387
H         9.93886866924704    4.59360030427460   10.81221639501725
H         8.57504655157934    5.12974612535209   11.83805599197662
C        10.13457511827921    3.31965721874431    7.27788561665477
H        11.17856820813259    3.63033778199631    7.26719722306429
H         9.55328743246534    3.97445222265723    6.61915946068520
H        10.05322270812544    2.28941182324373    6.92583739484412
C         7.84298783444315   -0.15746535054006    7.62018692124883
H         8.60850287566037   -0.75929104499725    7.13146766381882
H         6.99682155690886   -0.02449095619458    6.93810528479776
H         7.50280095480648   -0.67123830732016    8.52493076747512
C         5.91282516205839    6.90867075038388    8.15034228043662
H         5.28829716402067    6.24528745646184    7.54801867498819
H         6.89313331788334    6.45082578701910    8.26590889956643
H         6.02617813308904    7.86988274687020    7.62801917876897
C         6.23252859364844    7.84762727975904   10.32212678574836
H         7.18599754268301    7.32081793811955   10.34342792874926
H         5.84617756689208    7.90732415525397   11.34221619667897
H         6.38890111650436    8.86648104105156    9.93693104947842
C         2.08965495586902    5.59763078540338   10.10268833802375
H         1.90918755111307    4.58783546446419   10.47525506384074
H         2.55782607569672    5.49428809757688    9.11772348646170
H         1.12555706258706    6.11615301637692    9.99218263816848
C         2.39830910612073    6.31259271864291   12.36333673545481
H         2.22601982125010    5.28717600561796   12.68592302860598
H         1.44067609990475    6.85339380863861   12.38707297797369
H         3.08697756801969    6.78234667520860   13.06747459426426
N         2.97517855719070    6.31815013075972   11.02282976789651
N         5.31036853692057    7.09777843496683    9.46910710035059
O         3.32123143613017    2.64729086637197    9.53092430084677
O         8.46160040904124    1.06716159592892    7.92329228220201
O         9.71291747525576    3.45081139780475    8.61834509783889
O         8.34325861234940    5.45630251251974    9.80786948392569

