63
CSD_code = HIGGOT | q = 0 | S = 0 | Stoichiometry = C23H33ClN2O3Pd | MND = 4
Pd        2.39991717098663    3.04334181322829    5.97888637833173
Cl        4.06583028249410    1.56368707292023    6.30737673301890
O         4.73878673810504    5.97456493812304    1.12600846774464
O         3.19900669630028    3.87810987703022    0.63991839895379
O         2.09463727745272    2.40212800714262    2.65449007249611
N         1.40560141928567    2.50746990228236    7.88589860821750
N         0.72244776704174    4.39423802482940    5.77666188548457
C         4.40851784670537    5.15059740485218    5.97795128319796
H         4.50120285353358    4.28989510344364    6.64559402958896
C         4.51318818393412    6.39543280968862    6.46493282899253
H         4.39891508110259    7.23671914584538    5.79000935079422
C         0.13436713132264    3.23172832355935    7.91466054488750
H        -0.17699214050986    3.44457186523261    8.95062818453262
H        -0.63980712610288    2.60282377423584    7.46492144651909
C         0.22600469791239    4.55567948041668    7.14822904172545
H        -0.76935788195914    5.03177819599882    7.14068353823326
H         0.91415558570920    5.22814623179281    7.67079668656940
C         1.20793557208392    1.07703102393636    8.09845284242346
H         0.53705400480920    0.67314771336613    7.33701668278657
H         0.78544956181932    0.87188385977088    9.09238974007973
H         2.17088374367958    0.57292600229280    8.00615383967598
C         2.33362717834029    3.02608456266278    8.89105059850046
H         2.52659759540621    4.08995149074953    8.72416514501940
H         3.27740377817774    2.48286553332785    8.80813230237639
H         1.93219269063880    2.89308820602405    9.90711807277731
C        -0.26069632497372    3.72158002285962    4.92856513179472
H         0.13324659417866    3.64502877504751    3.91446072077079
H        -1.20547252573968    4.28454061371628    4.89879859838724
H        -0.46531378366560    2.71411660289009    5.29491976124714
C         1.00064370006470    5.71416440264888    5.21834540622366
H         1.36033642687906    5.61256354078440    4.19550839795677
H         1.77504745728464    6.21002733287131    5.80397262100254
H         0.09495902924018    6.33695005452658    5.21822897703225
C         3.29037541948983    3.73190602615586    4.33088864007863
C         4.13248908606699    4.82021144724207    4.57938933357445
C         4.64257712794904    5.58555924555163    3.53099760869967
H         5.30447072390085    6.40517970804783    3.76012845590669
C         4.31024454401377    5.27974204925925    2.22229182669721
C         3.46482958819334    4.19040866201580    1.95598078136123
C         2.95556605825788    3.42366329722220    3.01512406796812
C         5.70862775900578    6.97176758226343    1.31404278783906
H         5.32039806998211    7.80928890220495    1.90545757607719
H         5.96288008988518    7.32708413473238    0.31641943922703
H         6.60727099382689    6.57474861116869    1.79718585968116
C         1.86363492825814    4.06948086016707    0.22950292850913
H         1.83279301445770    3.79518840856452   -0.82355628755690
H         1.56498571598308    5.11937491536271    0.33922898443199
H         1.17423399590127    3.43505650689118    0.79389697043603
C         2.10792780681398    1.22886283183650    3.44278820632191
H         1.53564081184534    0.49129787872525    2.87994150391280
H         1.63262255805096    1.38519582298776    4.43735791539565
H         3.13119739045746    0.86781124226971    3.59034618576159
C         4.72538478787417    6.75284913986067    7.85713525558510
C         4.99628912584653    5.81078176646197    8.85390814165290
H         5.08910019872982    4.76617562136470    8.59841763991730
C         5.16631853399414    6.20121102910690   10.16737165167635
H         5.37744828013539    5.45770164730308   10.92282384366934
C         5.07489626019181    7.53807590576293   10.52181270537655
H         5.21079570621717    7.83926612001481   11.55004485628021
C         4.81540649618884    8.48551488357578    9.54542892760980
H         4.74892726209747    9.53109941895251    9.81052103352473
C         4.64308407321234    8.09723059378126    8.23134748782893
H         4.44066731162468    8.84350403300648    7.47494935518983

