71
CSD_code = HIGHOX | q = 0 | S = 0 | Stoichiometry = C27H39N2ScSi2 | MND = 8
Sc       12.27980638968163    9.28754919382076    1.56823195012817
Si       10.35296789926548    6.95335823474127    3.57892210965867
Si       14.59114886467467    7.01186558174402    0.11652519996949
N        11.03840266742978   10.25811187145811   -1.48590864953833
N        13.00391786280086   11.04891848758752   -1.19859623323878
C        11.55947339791852   12.10591346964607    1.46382492072724
C        12.11844316823166   10.97672345752103    3.41360417138859
C        13.32942386755880   11.36803122465485    2.71589041906174
C        12.99085638181306    6.03661149283034   -0.27837840576961
H        12.57870421338927    5.59123117633915    0.62155181408987
H        13.16616140535755    5.23754316292758   -0.99154250152245
H        12.23172977267695    6.69438809065588   -0.69712993223910
C        12.52662974411911   11.59736549283926   -2.35506219667570
H        13.09677256648725   12.28146480317064   -2.94973519316705
C        12.20063007685398   10.42563598428995    4.69903067950282
H        11.29956286944786   10.18911681248803    5.24890701282476
C        12.09266448808217   10.21909928165433   -0.63551476152702
C        11.00976957654377   11.42735018091241    2.61579911588056
C        12.08539411061114    6.71598181851972    4.36842197749423
H        12.70078191164545    6.06319842526933    3.75503495100704
H        12.01976062011039    6.26798567579561    5.35545234997137
H        12.60708600103255    7.66768048148289    4.47011039650001
C        13.43628442418262   10.23375465368784    5.27522486277469
H        13.50845476482279    9.81947854349511    6.27009836941857
C        12.97550278701560   12.04835743947460    1.52190069406184
C        10.48996138066906    7.99678641319049    2.00508905147022
H         9.59846150155621    8.64638349828599    1.94925600670728
H        10.39841220692512    7.29601022641611    1.15873663402079
C        14.57480899725637   11.15920278985339    3.34820950980824
H        15.49042082931539   11.47764503565821    2.86562407251989
C         9.78013406885225    9.59266907365821   -1.27891637959460
H         9.94185557349694    8.65744741105000   -0.74138388827671
H         9.31298495397630    9.38272875919031   -2.24090796728722
H         9.11205677128971   10.22687804719738   -0.68854383500753
C        15.98668573891627    5.72944171610135    0.41396530324200
H        16.93692586255415    6.21781628759804    0.60805654251268
H        16.12451794829587    5.07202253440273   -0.43960864736796
H        15.76005476250634    5.10630088527625    1.27373135537201
C         8.79674675371605   12.00483397476898    1.90261753109935
H         7.72633541457742   11.98928168235225    2.04843689512529
C        14.24928596797473    8.20001714626583    1.53497417671615
H        15.09611392711699    8.90101031814633    1.61854431146199
H        14.27797182619206    7.61228118532715    2.46544152389352
C        11.28285097736247   11.09522339205207   -2.53921150371781
H        10.57108984558704   11.26352049556463   -3.32093426565273
C        14.22853211384692   11.45457437429931   -0.55976496350980
H        14.92074857319509   11.82195934954640   -1.32231977696194
H        14.66452370202678   10.58466056999429   -0.05170167121768
C        13.92539237464376   12.55736368461063    0.48559387937490
H        14.86829583556740   12.86167036769836    0.94402364926656
H        13.49940664777707   13.42418365422775   -0.02692789924642
C        10.67760212219066   12.73618702985081    0.56478838691342
H        11.06318506524836   13.28256292683811   -0.28726019039905
C         9.65706018462771    5.19652513513104    3.24169914471037
H         8.64597441760839    5.23636203222009    2.84769492620570
H         9.63312797519993    4.59419878459441    4.14448807346451
H        10.27003495770997    4.67159744846239    2.51508500698108
C         9.32468403527870   12.67209101758411    0.78740814361717
H         8.64604593485579   13.15973314837832    0.10002349345943
C         9.62660482712171   11.39799835431203    2.81862006760601
H         9.21496279233268   10.91749634765957    3.69615902129124
C        15.06151243473756    7.96294753964794   -1.48576978840886
H        14.24789036418787    8.60112437537513   -1.81973421869117
H        15.28630674299500    7.27349676498192   -2.29312371945066
H        15.93921020775995    8.58486991566563   -1.34034850444198
C        14.61118308079874   10.59745797464230    4.59962675694720
H        15.56203504224959   10.44849260619671    5.09162020577006
C         9.19241705637792    7.75369376839943    4.87810293941424
H         9.48901084231358    8.77280864406537    5.10217871878589
H         9.20310597953878    7.19897702584332    5.81100792521334
H         8.16594154991764    7.78225125041114    4.52589084549312

