30
CSD_code = HIGLUE | q = 0 | S = 0 | Stoichiometry = C13H14Cl2Ti | MND = 12
Ti        1.32156982588074    2.15726183849552    3.27502177318656
Cl       -0.78035413700128    2.15689585469810    3.92930586262460
Cl        2.09115924733772    2.15756347710996    5.33712594508538
C         2.18275201038826    1.02835106314651    1.48826928080035
C         2.90090607790139    0.59676837154578    2.63366562459149
C         2.03132650973291   -0.17398838738941    3.43759065430894
C         0.76679336630829   -0.17848414922125    2.83237517066852
C         0.84318481579128    0.58884627620604    1.64797931074687
C         2.62009157522089    2.15723180597005    0.56802182105020
C         1.87979563859770    2.15724159314831   -0.77156749700459
C         4.12608795946367    2.15723005522878    0.29481982863323
H         3.96400461529072    0.69951233720800    2.80767804044716
H         2.31381041118889   -0.71843801234064    4.32887553296152
H        -0.10128858332064   -0.72717607195992    3.17308007242512
H         0.04013084821581    0.68461113929203    0.92899223451858
H         0.80160114629478    2.15724140763145   -0.64269936579132
H         2.15507183600199    1.27385189648674   -1.34366609089384
H         4.70806716195327    2.15721986812930    1.21152026793649
H         4.39523809944405    1.27385991721685   -0.28017387642275
C         2.18278528980954    3.28612576394043    1.48826979497437
C         2.90094507183053    3.71769581381648    2.63367029060050
C         2.03137777990237    4.48847435347907    3.43759311109207
C         0.76686297760926    4.49303009161525    2.83234746497206
C         0.84323061304671    3.72566512025289    1.64797281519072
H         2.15507309343061    3.04064484932123   -1.34364496123240
H         4.39523362878320    3.04061558460672   -0.28015165212284
H         3.96403597375695    3.61492491873356    2.80768609188643
H         2.31385822386040    5.03290894726205    4.32888655628087
H        -0.10121683062731    5.04172299230104    3.17305548120862
H         0.04016575390778    3.62989128406851    0.92900041727688

