30
CSD_code = HIGMEP | q = 0 | S = 0 | Stoichiometry = C13H14Cl2Zr | MND = 12
Zr        5.83808646884000    2.21325042514123    3.34202691123714
Cl        8.08094281255826    2.21325281636160    3.93232286529752
Cl        5.01896600328959    2.21325289220616    5.51106443130050
C         4.90803373426235    1.04261693644567    1.45068412013968
C         6.24143407691288    0.56977972553504    1.59265820645748
C         6.31290419244815   -0.21136364542372    2.77256082168887
C         5.04423362714297   -0.19660414525682    3.38450807862008
C         4.18069986544303    0.59433223800398    2.58765881975606
C         4.48945116013029    2.21323854312374    0.55901543248803
C         5.23570882462438    2.21323414552519   -0.77907375841540
C         2.98382114902812    2.21323418787889    0.27500891433747
H         7.04345171102161    0.66224642400271    0.86932182017623
H         7.16526845294114   -0.80230897970144    3.08684495738098
H         4.74850016903659   -0.77434039663515    4.25237142387855
H         3.11704712988486    0.70787312059477    2.76301899990882
H         4.96369555319620    1.32997427780046   -1.35224195863057
H         6.31310944106164    2.21324120455373   -0.64312561006580
H         2.71797568370479    1.32992792216841   -0.30096027461289
H         2.39779760063664    2.21324202476471    1.18905791001274
C         4.90802960694393    3.38386805064910    1.45067590387104
C         6.24142848688927    3.85671025421172    1.59264720641191
C         6.31289615044188    4.63786154677958    2.77254485581041
C         5.04422573544152    4.62310190473039    3.38449215322017
C         4.18069454292010    3.83215745541998    2.58764800372574
H         4.96368556126608    3.09648340768878   -1.35225354619089
H         2.71797339325021    3.09652907089489   -0.30097661083137
H         7.04344692731210    3.76424177790774    0.86931196246570
H         7.16525901641382    5.22881065989437    3.08682563603266
H         4.74849059462119    5.20084177052005    4.25235251611964
H         3.11704232833640    3.71861438421426    2.76300980840954

