53
CSD_code = HIGNET | q = 0 | S = 0 | Stoichiometry = C24H20N2O6Pd | MND = 4
Pd        0.05005742708539    1.93327282133226    5.55803932085606
O        -2.99718130935268    3.19397773425693   -0.58509042290997
O        -3.00081138952332    5.26153795936921    0.27961555470633
O        -0.66544837210630    1.41706204882874   -0.44240838969454
O        -2.52312052915489    0.51484929215329    0.44530840548693
O         1.72557882584877    2.88057676220578    4.90179364822405
O         1.89907233498286    0.72742978217798    4.44456263321601
N         0.97821222931191    1.16625836738559    7.31925126205488
N        -1.48693364233811    0.93423730022741    6.22872657119827
C        -2.06473134846172    3.53648315973243    1.57333397606556
C        -1.50914753400638    2.25401245569276    1.63550284449567
C        -0.91707128776695    1.81310180831938    2.80966237502501
C        -0.86866774819444    2.63210785433299    3.94048410834435
C        -1.40994039949973    3.91833798414972    3.85734207938637
C        -1.99991951687292    4.36699227536044    2.68989823717934
C        -2.72115659901825    3.94869085008304    0.31889191232791
C        -3.62465005879399    5.72042431900815   -0.90852556271590
C        -1.50884893350138    1.38711751474498    0.41324535685382
C        -2.65814802357207   -0.30519801432602   -0.70642049819567
C         2.33698023290609    1.88853279105772    4.40294959373823
C         3.67098294474143    2.17183209870876    3.73170077036605
C         2.19602741457141    1.28625839133448    7.80442771866185
C         2.69969940289002    0.43553488524690    8.79338151753834
C         1.89792889533312   -0.56439001129983    9.29222972987216
C         0.59460125882309   -0.71341870001300    8.79147568630748
C        -0.31130506091320   -1.71279807218910    9.24628528834099
C        -1.55941381499039   -1.80748495589250    8.72846014689824
C        -2.00893249042055   -0.92386813171107    7.70423417838531
C        -3.29252798578556   -1.00355757165212    7.14198501934501
C        -3.63493146608412   -0.11312337892143    6.14888754953977
C        -2.70945009381752    0.83530457588033    5.71965607165562
C        -1.13430467043215    0.07308775359760    7.21779752116558
C         0.17754669343664    0.18349105397595    7.78172868972344
H        -0.47109994243216    0.82022959047990    2.84351461225888
H        -1.36287218575000    4.57716963506267    4.72025019493888
H        -2.42122095165641    5.35900695360815    2.62901756352464
H        -4.61332738211872    5.26863028890987   -1.01804032294864
H        -3.02155126222216    5.45635549971069   -1.77978110702719
H        -3.70699004179153    6.80014642786815   -0.81213728628158
H        -1.72945082004228   -0.84686098303589   -0.89889108537110
H        -2.89270648495362    0.31765834985628   -1.57161784645604
H        -3.47172455744021   -0.99545871588478   -0.49774245174805
H         4.35433053023974    1.34394304948799    3.89857881308125
H         4.09037060216123    3.10245199281447    4.10286222891590
H         3.49616528135752    2.26555333484514    2.66194080444184
H         2.80056913875142    2.08983051643945    7.39940528725497
H         3.70663888101506    0.57328554472595    9.15408288046419
H         2.25373053860822   -1.23592634462939   10.05990552659362
H         0.02278254215999   -2.39249914057593   10.01606494928435
H        -2.24624616992458   -2.56406348095825    9.07776048306151
H        -3.98638942564762   -1.75318142069535    7.49056930158716
H        -4.61145855477443   -0.13986841546715    5.69259315874399
H        -2.96969512090193    1.53712431425504    4.93755140224265

