46
CSD_code = HIGPUI | q = 0 | S = 0 | Stoichiometry = C20H18ClCoN6 | MND = 6
Co        6.28013056401120    2.83702511859505    2.17226519286105
Cl        7.78039491557829    4.29227374560339    2.95576295114166
N         5.82986857755969    2.22369174827942    3.93732859293914
N         5.01241712288493    1.62026098876232    1.35480067576553
N         6.62246648237136    3.33924353504375    0.35726166897072
N         4.18483767418953    0.73504521735372    1.91314510144568
N         7.67277583595320    1.49677845638589    2.04048091183725
N         4.91603024345500    4.20878047666848    2.27678327299885
C         6.31574942554351    2.60834005440889    5.12089720860337
C         5.71381978274831    1.90337530988416    6.16188874954396
C         4.80827124901435    1.03881325390849    5.57837187738976
C         4.89131354656233    1.24923834103264    4.19064680179084
C         4.14361658470610    0.58065694604986    3.19953738366618
C         4.98867111840254    1.70285085920653    0.04725281263354
C         5.85528407428568    2.62921678458797   -0.53400229067777
C         6.16156405788459    3.03897944183225   -1.84062441783318
C         7.13445643680255    4.01535081867471   -1.71636351251882
C         7.38710026546791    4.16789374951004   -0.34963288830189
C         8.87582885262590    1.83116800172193    1.56759917051434
C         9.92101202921442    0.93191004493979    1.45658837902996
C         9.73153830917095   -0.38142190279361    1.85051246075125
C         8.48511167996351   -0.73201822707486    2.34153391823973
C         7.49311330301994    0.22861666217757    2.41683323623516
C         5.19285296204950    5.45401212062821    1.88233153535766
C         4.27750710393213    6.48907171383855    1.94893882394584
C         3.00897746090355    6.24306127472814    2.44527984070402
C         2.71726712925127    4.95223085231868    2.85287550646001
C         3.69013488759716    3.97447458505542    2.75061930200951
H         7.07104583900878    3.36658039214709    5.20213947450457
H         5.92553031959725    2.02239803060928    7.20700312603009
H         4.15770499369367    0.33516521136721    6.06253753157761
H         3.43337349506989   -0.16693102514759    3.53182162546443
H         4.31859351711907    1.06884511329422   -0.52077018664011
H         5.72065494621852    2.66014623170158   -2.74231497577834
H         7.61291111251234    4.55976881426249   -2.50762500434199
H         8.08393946037240    4.83923906008510    0.11986173696533
H         9.02137318646930    2.86187158166375    1.28336706021274
H        10.86887967556024    1.26843842285304    1.06799348612332
H        10.52725081141377   -1.10725478256222    1.77988414192292
H         8.27417416676147   -1.73820961324889    2.66752807419974
H         6.52399064394838   -0.04712168834360    2.80386963277014
H         6.19044838460361    5.64179788031101    1.51651922061779
H         4.56718149134052    7.47316698561070    1.61683392923396
H         2.27268576294334    7.02934605090294    2.51431460330344
H         1.74786066716489    4.69573387186407    3.24993992911320
H         3.46068985105300    2.97039949130066    3.07338432921705

