63
CSD_code = HIGPUK | q = 0 | S = 0 | Stoichiometry = C35H23ClIrN3 | MND = 6
Ir       -0.45242609257950   16.00947229604508    4.96400158525329
Cl        1.96301717150309   16.00954608496917    4.76216120554339
N        -0.46343984997417   18.02594371369745    4.59317910682657
N        -0.36939693912175   16.00954937515661    7.12059960921731
C        -0.64853394352859   16.00949797896166    3.04882165263308
C        -0.77167592520652   17.24375921267751    2.39173693492953
C        -1.22015906755864   17.22664533477506    1.07095786843258
H        -1.46077588757761   18.13580297144947    0.54120375805880
C        -1.45903073013819   16.00949837308698    0.44805306462284
H        -1.85284601042248   16.00949841488526   -0.55831366498155
C        -0.47581757518817   18.35815710937164    3.28439816027158
C        -0.15942008006145   19.68694914437334    2.87454887121668
C         0.12924136871547   20.04519632607380    1.54137160855600
H         0.19538880295679   19.27748110395057    0.78984047251257
C         0.39382225795768   21.34575265044714    1.20435923484640
H         0.62104138812019   21.60060379626719    0.17982494861884
C         0.39131319800076   22.35306702907756    2.17813079937436
H         0.58460920354288   23.37561335371095    1.88961027885188
C         0.18937782021748   22.02927672357043    3.49169347001005
H         0.23983389170191   22.78429391240912    4.26272440675567
C        -0.05945315451987   20.69678025197180    3.86949193558384
C        -0.16826177037814   20.30677221010541    5.22156780849075
H        -0.09830436104849   21.04713342447630    6.00304927170001
C        -0.30658517933124   18.98493230420077    5.52341298669159
H        -0.31705351426318   18.65136025477173    6.55230794498289
C        -2.42810549256658   16.00958817581697    5.42985710697340
C        -3.50535574291007   16.00953672351718    4.54970031920517
H        -3.32359520659095   16.00953272201404    3.48403173287684
C        -4.81398203435185   16.00949869232074    5.00190272296486
H        -5.62915101830924   16.00952503660105    4.29201660550093
C        -5.08131326090325   16.00948580303174    6.36175756142700
H        -6.10168639182883   16.00949085088466    6.71689995505344
C        -4.03657939895144   16.00947391519079    7.26186299856274
H        -4.25561506655399   16.00946613288389    8.31964078363148
C        -2.71494070655446   16.00951424487634    6.81229656595469
C        -1.57417075211437   16.00951136147609    7.72474070418532
C        -1.66144906901910   16.00948112114899    9.11824717194816
H        -2.62372489611405   16.00947289491220    9.60396256132695
C        -0.50683435805053   16.00948859321763    9.87720269893434
H        -0.56383795691532   16.00948818868206   10.95609362667293
C         0.72283033687235   16.00951008909204    9.23369202259438
H         1.64707548311933   16.00951337778759    9.78880332688426
C         0.73792736800221   16.00953884551487    7.85060057907113
H         1.66517284465073   16.00952121093147    7.29156438918799
N        -0.46344157176849   13.99302771624163    4.59317601174444
C        -0.77167699257705   14.77523518015872    2.39173904798601
C        -1.22015969836385   14.79235181642072    1.07095940410119
H        -1.46077461591610   13.88319440430295    0.54120464796751
C        -0.47581675129399   13.66082971547869    3.28439519282614
C        -0.15942180483886   12.33203909162321    2.87454691446925
C         0.12924307253845   11.97379679485866    1.54137061172625
H         0.19539692160298   12.74151421969407    0.78984212106863
C         0.39382268862905   10.67324114925820    1.20435812539129
H         0.62104367290175   10.41839135800590    0.17982406208481
C         0.39130948861041    9.66592549055663    2.17812884577158
H         0.58460204335105    8.64337910945887    1.88960770123877
C         0.18937396642236    9.98971292009198    3.49169162750137
H         0.23982742214742    9.23469541570028    4.26272224947438
C        -0.05945531508502   11.32220790660772    3.86949096096175
C        -0.16826278736780   11.71221116096250    5.22156790086999
H        -0.09830301224180   10.97185177803141    6.00305037082168
C        -0.30658722794989   13.03404752245538    5.52341223085489
H        -0.31704920153396   13.36762591971157    6.55230522119009

