63
CSD_code = HIGPOD | q = 0 | S = 0 | Stoichiometry = C28H24N6O4Zn | MND = 6
Zn       -0.00000000000003   -0.00000000000009    3.22977912933406
O        -0.13706253272942    1.55406380798430    4.56302526186159
O         3.53460672849973    3.43893346674689    5.29799248541906
H         3.29232655267986    2.69627944115834    4.68579312855709
N         2.09321337545381    1.71544104109992    4.03956359596004
N         1.85892806900675    0.70413979119347    3.21196523530381
N         0.98533676175432   -1.20724428124622    1.69227091003536
C         0.98833411980430    2.07756560647399    4.72624302703786
C         1.16987726099840    3.16565670533073    5.70244562246917
C         2.41155501869990    3.78400628824027    5.94229889770202
C         2.48705617066244    4.80486365725930    6.89240122951503
H         3.44751440064058    5.26619807269384    7.06251311704358
C         1.36860013078306    5.20367954308403    7.59160955566177
H         1.45027670698533    5.99341922332072    8.32408969229046
C         0.14154101286600    4.59374614577576    7.36087605525674
H        -0.73262714093515    4.90566663470100    7.91186405146621
C         0.05156086640816    3.58712288098411    6.42591527568168
H        -0.88672012883135    3.09159852950096    6.22653909941723
C         2.76154237535666    0.17635165343001    2.45657975989928
C         2.29951587004057   -0.93930400139476    1.64786373362158
C         3.16299735586624   -1.71598434957159    0.86593662385178
H         4.21786427704678   -1.49697480393047    0.83989388722808
C         2.65029674477762   -2.77392022903405    0.14192079224253
H         3.30147762752484   -3.38825630765692   -0.46253019837424
C         1.28907165084869   -3.03870278294539    0.20475369235467
H         0.85117305234717   -3.85715099447112   -0.34325920445172
C         0.50252668962841   -2.21990029280992    0.99934186370828
H        -0.56333767902618   -2.38367482514797    1.08354573399150
C         4.18731130053233    0.63605711627543    2.40218198883711
H         4.84603056314888   -0.11468626879087    2.83743469685309
H         4.49644758771685    0.81391450856052    1.37335949643512
H         4.29063882306013    1.55706961387753    2.96948132843491
O         0.13706253272969   -1.55406380798473    4.56302526186122
O        -3.53460672849903   -3.43893346674729    5.29799248542045
H        -3.29232655267901   -2.69627944115920    4.68579312855792
N        -2.09321337545430   -1.71544104109808    4.03956359596332
N        -1.85892806900620   -0.70413979119542    3.21196523530242
N        -0.98533676175503    1.20724428124646    1.69227091003640
C        -0.98833411980699   -2.07756560646514    4.72624302704776
C        -1.16987726099649   -3.16565670533453    5.70244562246581
C        -2.41155501869776   -3.78400628824448    5.94229889769888
C        -2.48705617066051   -4.80486365726109    6.89240122951446
H        -3.44751440063858   -5.26619807269569    7.06251311704335
C        -1.36860013078068   -5.20367954308609    7.59160955566031
H        -1.45027670698215   -5.99341922332411    8.32408969228770
C        -0.14154101286344   -4.59374614577896    7.36087605525340
H         0.73262714093755   -4.90566663470272    7.91186405146393
C        -0.05156086640530   -3.58712288098983    6.42591527567570
H         0.88672012883289   -3.09159852950273    6.22653909941497
C        -2.76154237535676   -0.17635165343091    2.45657975989955
C        -2.29951587004137    0.93930400139571    1.64786373362361
C        -3.16299735586701    1.71598434957171    0.86593662385294
H        -4.21786427704718    1.49697480392891    0.83989388722719
C        -2.65029674477853    2.77392022903438    0.14192079224383
H        -3.30147762752520    3.38825630765505   -0.46253019837576
C        -1.28907165084943    3.03870278294498    0.20475369235496
H        -0.85117305234808    3.85715099447123   -0.34325920445077
C        -0.50252668962882    2.21990029280859    0.99934186370735
H         0.56333767902473    2.38367482515071    1.08354573399561
C        -4.18731130053347   -0.63605711627328    2.40218198884047
H        -4.84603056314871    0.11468626879688    2.83743469685192
H        -4.49644758771788   -0.81391450856348    1.37335949643933
H        -4.29063882306317   -1.55706961387198    2.96948132844348

