95
CSD_code = HIGQOF | q = 1 | S = 0 | Stoichiometry = C50H36IrN4O4(1+) | MND = 6
C         6.39718682606978   11.64515199941517   10.34277469362979
H         6.26363667985046   10.93786547149452   11.15082628775395
C         7.52709985574122   12.43607195005424   10.28939610024464
H         8.28215688163885   12.35465235475761   11.05405008620541
C         7.66152682405370   13.33012738733754    9.23371508042111
H         8.53271006393137   13.96146395115560    9.15658200375053
C         6.65921660928965   13.39681693937184    8.28801882447636
H         6.73814423946120   14.08172214587676    7.46075758357024
C         5.53898443117746   12.57196125589950    8.40075246225738
C         4.41427054082458   12.55206205964814    7.47926944037150
C         4.33103377636153   13.34047371254370    6.33172716233006
H         5.13251611323806   14.01354199552192    6.06954761670341
C         3.21967962432712   13.25676079439267    5.51853644997121
H         3.15465152848778   13.86377077594486    4.62886660074262
C         2.18325478014470   12.39926070339227    5.85225995048310
H         1.30696753426141   12.34525800280413    5.22362660175373
C         3.37802747334293   11.65554065798739    7.81400359556973
C         2.10556708872548    8.13971142708058    8.51431722574528
H         2.91829350334175    7.94336919088908    7.82735714676498
C         1.03264864911150    7.27486469540681    8.58970607557988
H         0.99596295184477    6.39987227571165    7.96161810484670
C         0.01186856192334    7.56213300371301    9.48827351915303
H        -0.84134635370715    6.90797461156236    9.57659894337929
C         0.10844846382517    8.70052612916660   10.26142650400029
H        -0.66971132311445    8.94831722910621   10.96353416522336
C         1.21778479092202    9.53825386568622   10.13442055989102
C         1.43100890362552   10.76823803643880   10.87914067707325
C         0.55422942571743   11.25905171962376   11.84701147366725
H        -0.34453784973299   10.71765625699959   12.09833321371534
C         0.83715541022968   12.44283145082958   12.49614177619841
H         0.16363023971142   12.81966361542546   13.24977750975063
C         1.98514470427168   13.14914129978547   12.17306151696306
H         2.19866856182388   14.08350714594983   12.67011568180049
C         2.86452820042267   12.66252508500728   11.21741028286757
H         3.75049886564854   13.23715792533569   10.98557689232602
C         2.61689434502127   11.46409300597209   10.56329125204049
C         3.80646977605395    8.75144837818507   12.01162093442232
C         3.01565585314581    7.61492259220023   12.20673069122203
H         3.03249734355715    6.82580651580568   11.46720882402020
C         2.18727197253008    7.52602133296896   13.30514748432487
H         1.56662046334233    6.65585988319384   13.44824681979264
C         2.14628952299456    8.56263004883188   14.23315280948202
C         2.94766282399550    9.68778040679935   14.04762937790648
H         2.90256006604826   10.47974881907674   14.77881787761978
C         3.76516867174419    9.78911586748596   12.94502144855211
H         4.37369608531767   10.66660833960259   12.79424030705999
C         1.26026270889012    8.52234924602855   15.42643108151270
C        -0.25860367806403    7.24301505415336   16.66289984009404
H         0.31146650710689    7.35758860820719   17.58660490999290
H        -0.69842386408124    6.25106238049792   16.60491900357973
H        -1.03365706326118    8.01101552885315   16.63264815230544
C         5.76994748583630    9.61984898101044    7.00870555488015
C         7.06246784412434   10.14574677972251    6.91979749428878
H         7.71872711172609   10.08923385537892    7.77752700238962
C         7.46646401845654   10.78150630486999    5.76701873169113
H         8.45083353367978   11.21765918769290    5.69020711963120
C         6.60508712903312   10.87957994458954    4.67704825239752
C         5.33221622426966   10.31943144124103    4.75004383141469
H         4.67104236664443   10.38807545118561    3.90171768614058
C         4.91262848268152    9.70610719863983    5.91001212348464
H         3.91750994652711    9.29567866180241    5.97888985521506
C         7.08127145074262   11.61446262242663    3.47587767645115
C         6.61567438363984   12.20703214013849    1.26221789513089
H         6.70149754370381   13.27900186805780    1.44949644874662
H         5.83685237367350   12.00666948103910    0.53162048292178
H         7.57933147324067   11.83516392668708    0.90955614128743
C         5.33750885124971    8.06646509363527   10.33687551471438
C         6.03079166116272    6.91231966671793   10.88936625441071
C         6.01463022666709    6.24293975836587   12.09158283101292
H         5.35004641841844    6.52697349634229   12.89350509883075
C         6.89285425710654    5.15923244559501   12.26632724193996
H         6.87285902544468    4.63728425948358   13.21098269967314
C         7.76348923101557    4.74141830088019   11.28762955261182
H         8.41505714424415    3.89899701981945   11.46339455218196
C         7.81675732000926    5.41222813365002   10.04493705252183
C         8.64902113672611    5.12021739029116    8.94062912510232
H         9.34279598541658    4.29569622739592    9.00355796709948
C         8.57548852255954    5.87680661578465    7.79495964313089
H         9.21664295900655    5.63358675988909    6.96133960459391
C         7.69934615006613    6.96774412449162    7.65866304077520
H         7.68554576888378    7.53118334033386    6.73790853599118
C         6.88166930350868    7.28698107093970    8.71825394469237
C         5.84894063594488    8.28133817438485    8.96537936025275
C         6.94399916342142    6.49342346967885    9.89021302334174
N         5.42793834038309   11.69968440222155    9.43009399404234
N         2.20771208464991    9.23886751541000    9.26028194746804
N         4.50273086542854    8.91801592081081   10.82357504738428
N         5.28746877806271    9.17812272507513    8.23176286361623
O         1.14813702200740    9.43378643688544   16.20670484615614
O         0.60052658070585    7.36391190203027   15.53548677558188
O         8.11971443621661   12.22669294429528    3.43829021026701
O         6.22976478289087   11.52787883511520    2.45103291017791
C         2.26452092194698   11.60699767961224    6.98752581442219
H         1.43985262109971   10.94855240693349    7.22265528694665
Ir        3.85040032678056   10.42529291026772    9.34560634191287

