78
CSD_code = HIGSAU | q = 0 | S = 0 | Stoichiometry = C32H40Cl2N2ORu | MND = 5
Cl        0.14394448823980    5.60623686545219   17.88542182128320
Cl        1.34138302505159    7.39419118631305   21.89873876301245
Ru        1.10065275189549    6.48167283899813   19.79291671950229
C         1.84206051264384    8.06623749540946   18.84878362540081
N         3.02256699545614    8.36847659771830   18.31707180100053
C         4.20194761834076    7.58102912255977   18.30273661264352
C         5.10661622240873    7.68938313208861   19.36036366968887
C         4.77390322132534    8.53018981494682   20.55290083422612
H         5.53917534332790    8.43217249621967   21.31755075827828
H         3.81907346648039    8.20515922894907   20.96963213637897
H         4.68556801445336    9.58263962350416   20.28633551161006
C         6.28099309453031    6.95560167185835   19.30036990325948
H         6.98984619096442    7.02632200769290   20.11299626479002
C         6.56071021640800    6.12210045275287   18.22498093026610
C         7.83316339276560    5.33039214554937   18.19610220007948
H         7.75857227146277    4.47873892128171   18.87264075541568
H         8.67342243309841    5.94043267845378   18.52127823113122
H         8.03560737790571    4.95422459840146   17.19659122727792
C         5.62811977088224    6.00961705022622   17.20432328053299
H         5.82344154964558    5.34206797546616   16.37728864311928
C         4.44072671524579    6.72734401627737   17.22616030136063
C         3.40708857602950    6.55183640867239   16.15848220342584
H         2.45627666799689    6.27419900740201   16.61573580411760
H         3.70120394967978    5.76971877958392   15.46445565936564
H         3.25582329027452    7.47222438036504   15.59575638991396
C         3.05512017031480    9.69414694370706   17.70244223291868
H         3.30837150739152    9.61264975675186   16.64120459729677
H         3.81573793286063   10.31559576608754   18.18499151773544
C         1.63373821965070   10.21204996374704   17.93343935931623
H         1.60710844021826   11.12081710592358   18.54316403107976
H         1.09740426586953   10.40795751225471   16.99938189395244
N         1.01883225123518    9.10310975953189   18.64758208100902
C        -0.33170322335131    9.14621146439406   19.09231387063472
C        -0.62626164461409    9.69398512670746   20.34783747898761
C         0.42735351838612   10.34743570098013   21.18974711196637
H         1.42047041451147    9.97811862374862   20.95060259613291
H         0.24343924348096   10.15570713121228   22.24339193936866
H         0.40008307478928   11.42711633157560   21.02872921310448
C        -1.94597884796291    9.69426173632143   20.77530772452779
H        -2.17822982818897   10.09804925814022   21.75052818791803
C        -2.96978985118505    9.19830884412294   19.97972038107100
C        -4.37969461441593    9.17772879096861   20.48694975811899
H        -4.51466090136803    8.34620360396411   21.17925090490381
H        -5.08661629632740    9.05845502159729   19.66965765487007
H        -4.60997926874485   10.09609823777613   21.02329677685937
C        -2.66177376324110    8.74172208021871   18.70763903811153
H        -3.45334057635253    8.39824341708170   18.05677068585993
C        -1.35518952130722    8.72236288957219   18.23679262422183
C        -1.08676062033408    8.33710040654409   16.81366058249290
H        -1.72253962849715    7.50679050061311   16.51770545568725
H        -0.05369387998110    8.03637866166284   16.66475773859521
H        -1.30865216937831    9.18534806719966   16.16286876463868
C         1.14471957997567    3.73325301557957   21.04721336465531
C         0.98219347010772    2.51064346511489   21.68071289084972
H         0.03942757260585    2.21515207865441   22.10814350309186
C         2.04617814297795    1.62669232521012   21.78074443022203
H         1.89369006118061    0.68081602576643   22.27887637155658
C         3.28927010622471    1.94092483158862   21.25293769485026
H         4.10623427207244    1.24058590780632   21.33843411615405
C         3.47221105317644    3.15036062710982   20.62216640470864
H         4.43269940663074    3.41675360609069   20.20529901424609
C         2.41958066581333    4.07313617010641   20.50367971088002
O         0.21366421784951    4.69749993472599   20.85828175757294
C         2.59854072071123    5.32422056095472   19.86602522539603
H         3.59998032038806    5.50283637466539   19.47445829042098
C        -1.15028592804149    4.65434798329951   21.31475612626237
C        -1.73781731734444    5.99047643537588   20.84228203427829
H        -1.19370428876804    6.82489843302757   21.29302426847465
H        -2.78055802498382    6.07215394154227   21.13741092411585
H        -1.68869624340126    6.06039627558309   19.75298745822990
C        -1.91788187533383    3.51870459422803   20.63125969536772
H        -1.72255187774489    3.54986253951274   19.56029508108072
H        -2.98407095479813    3.65457007460331   20.79409345890576
H        -1.63949281135580    2.53730179889391   21.00158101559083
C        -1.20814349953168    4.60801392661758   22.84428657289516
H        -0.90648775337061    3.64669764931904   23.24802213375887
H        -2.22281386251335    4.81474080825004   23.17502934084824
H        -0.54676671249612    5.37309941782683   23.24895086713149

