55
CSD_code = HIGTAT | q = 0 | S = 0 | Stoichiometry = C18H31ClNiO2P2 | MND = 4
Ni       13.54881487170666   10.80916890000766    3.72271552810673
Cl       11.49025719069885   10.88908066781270    3.32182709977294
P        13.84189107691848    8.77083372098041    3.16859913626828
P        13.76218133727908   12.82876945409949    4.37215666224483
O        15.44441904688117    8.47437117745414    3.35505878073628
O        15.33033735156146   12.99992199028179    4.82114306331180
C        15.39208692667045   10.73682838110219    4.08978586525453
C        16.12156982529455    9.56989866483415    3.86566788449679
C        17.47840341689269    9.50412166500037    4.13944213551113
H        18.01822824755036    8.58789984393453    3.95875119752542
C        18.11649573624899   10.62601665454429    4.64407605840416
H        19.17293376555298   10.58296375452955    4.85978119692785
C        17.42204294833141   11.80239845307591    4.87669430839313
H        17.91802043831818   12.67652334448714    5.26844935048764
C        16.06539450517384   11.84695669173546    4.59814996680353
C        13.57584062720003    8.05728106819916    1.48684192719034
H        14.13750555741184    7.11696211187187    1.43826272120729
C        13.08061500232826    7.58741807871205    4.37578294611425
H        12.00339349623825    7.60039396758079    4.18280685355812
C        13.61520121829673   14.04011652146459    2.97614462376536
H        12.54641374360683   14.13346447350571    2.75989859393796
C        12.92561207564431   13.59094778519684    5.83080503423598
H        13.50569935122114   14.47699393541521    6.11450816921615
C        14.15979321083841    9.05630635346194    0.49123222043092
H        14.08408938934896    8.68104082948275   -0.52774786583946
H        15.20922399515713    9.25079113704075    0.71222158881417
H        13.61142565446938    9.99707917958222    0.55421562145464
C        12.09172353395916    7.82913197253145    1.23314412882365
H        11.53150624768635    8.73385534190019    1.46525184698189
H        11.70358019286760    7.01774783860645    1.84473912208494
H        11.92357330955628    7.57838347300093    0.18703563098068
C        13.63373413366355    6.17582351456210    4.24348655765623
H        14.72036081280096    6.19112259307207    4.30303510754185
H        13.34465457879681    5.72418053602173    3.29735934377313
H        13.25392644858217    5.55007277405857    5.04970229864285
C        13.34002279347859    8.18065156407624    5.75965185251956
H        12.80011664939690    7.63509269889824    6.53137055253396
H        13.01052534579034    9.22724148255924    5.77869500706940
H        14.40440752287854    8.15206740845142    5.99313186137816
C        14.30312994072029   13.38279475362548    1.78073228007482
H        14.13980020310625   13.95235036964443    0.86771348832993
H        13.90079295181290   12.37190116886748    1.63617347501695
H        15.37640473917626   13.30344472237230    1.95442445703151
C        14.21678443574115   15.39733217288251    3.31041771137618
H        15.24880236013359   15.28071570717608    3.63569648150671
H        13.65877360234965   15.89371244639453    4.10101198246964
H        14.20400276386641   16.03760440407465    2.42965468508498
C        12.98448995911491   12.55689306505855    6.95240239601052
H        12.54938550740416   12.95003580395996    7.86947828607518
H        14.01567218470573   12.26680169947664    7.15413174275499
H        12.42478441970321   11.66808093643634    6.65789725364590
C        11.48653968684743   13.95646320236638    5.49276782981185
H        10.98411712181255   13.10457962160518    5.03662342612726
H        11.44104653835200   14.79481683478293    4.80133287979783
H        10.94635200885268   14.23105308814885    6.39736764657030

