60
CSD_code = HIGTOH | q = 1 | S = 0 | Stoichiometry = C20H34NNiO2P2(1+) | MND = 4
Ni       16.73949164127371    8.97098598614165    2.44023481309786
P        16.60497781996973    6.82689615878340    2.02071387019000
P        16.25565699558354   11.03995620089558    2.97362789485649
O        15.07310758090462    6.40627958201109    2.35132284011158
O        14.74479429528070   11.00250350391996    3.56572173445994
N        18.51771752402935    9.20538199276581    1.98990633946587
C        14.32701241881115    7.45148859207753    2.86028131984689
C        14.93214972848061    8.70697975242459    2.95594058352881
C        14.16040122252881    9.75561900051412    3.46221786222613
C        12.84487445334506    9.56760766157979    3.85476444581196
H        12.28195448527217   10.40527617549947    4.23304861344782
C        12.28054382045412    8.30796670549110    3.74889458100927
H        11.25837091667325    8.15420512608472    4.05434953237774
C        13.01486468173775    7.24388828564054    3.25397755075920
H        12.58803704045886    6.25782595230463    3.16886260630064
C        17.57029964493443    5.90523449650419    3.31025491240259
H        18.62910036395538    5.99380492494380    3.04504346155097
C        16.82308885908424    5.95785394817571    0.40911272025497
H        16.39192204164486    4.95915431915226    0.54233630906838
C        17.09802264883503   12.09504198051429    4.23370215772741
H        18.10398961486843   12.30661987899981    3.85601305241885
C        16.03347585279470   12.03315079173369    1.42532424863055
H        15.36419112849569   12.87017630104131    1.65078123321823
C        17.32012845929317    6.64774926949145    4.62349801289425
H        16.29218984791796    6.49980436680880    4.95222807807866
H        17.48582839164594    7.72840491663589    4.48923303555611
H        17.98484248737614    6.29334558585518    5.40821151102847
C        17.16792596683629    4.43963312874758    3.39363233821061
H        17.65747626298412    3.96996077702436    4.24436434110813
H        17.45492461397716    3.89697254059213    2.49610887296450
H        16.09192377297752    4.34862353373177    3.52647656472905
C        18.29204791047524    5.86262378136298    0.02260593491332
H        18.38869032909410    5.38666585924850   -0.95093322918447
H        18.85782727814350    5.27620267296014    0.74297515628380
H        18.73157293483280    6.85727109435583   -0.04164649590100
C        16.01642712385426    6.72507382811659   -0.63521655562816
H        16.41848436111361    7.73103669664913   -0.76008955163306
H        14.97323638274780    6.80442828926724   -0.33332395666008
H        16.05625103379588    6.21905053876945   -1.59701285034132
C        17.20396373363868   11.26413894465105    5.51017813965406
H        17.76373451010435   11.80030288794299    6.27287667860001
H        17.70994765360404   10.31761037813490    5.31152090824268
H        16.21169082777863   11.04819720889724    5.90218926674511
C        16.33472306558061   13.39373183738441    4.45968217315521
H        15.30038183487768   13.18368289521418    4.72133389725483
H        16.35131724698982   14.02577059150069    3.57512685155043
H        16.78807355772442   13.94687374480318    5.27969851206907
C        17.36821485114031   12.54129198278999    0.89831789818488
H        18.04304948486443   11.70661285547693    0.71205112825855
H        17.84077989941162   13.22256983666478    1.60205347964269
H        17.21984239412755   13.07363697600570   -0.03893520054194
C        15.36348650984975   11.08808790052433    0.42750123494925
H        15.29878300628137   11.54248821752194   -0.55879797525529
H        14.35647576790891   10.82963355627673    0.75254799804664
H        15.94867587882280   10.15872906453478    0.34359028587547
C        19.64293225968378    9.31330367352936    1.78008471405225
C        21.03177642282868    9.44963162870550    1.50975537572342
H        21.24146000190453    9.13775579182676    0.48605836812105
H        21.60197152998260    8.82348207438107    2.19655084807594
H        21.33629762641914   10.48882375641443    1.63717152842605

