58
CSD_code = HIGVID | q = 0 | S = 0 | Stoichiometry = C19H34NiO2P2 | MND = 4
Ni        8.64589742806327   12.12675766134605   10.02946836072220
P         8.86760088255625   14.10465320629214   10.81929079442923
P         9.00445357478512   10.09534256952337    9.42485306552726
O        10.43485223496142   14.26979366361130   11.26052432432884
O        10.60977717730976    9.82912530704245    9.59170013540219
C         6.71046586844144   12.22295808873391    9.55662053545865
H         6.18133345457704   13.12003933856819    9.89462380356164
H         6.14495232303630   11.36261861653928    9.93787386665500
H         6.61765837296349   12.20590804288291    8.46042361231562
C        11.19536209227661   13.14102937253238   10.98072420501409
C        10.53029311581812   12.04903884055022   10.42920930525251
C        11.28087255380890   10.90959002069393   10.15167971204745
C        12.64015481028687   10.84752568886449   10.41176440702557
H        13.19390408904829    9.94849390688169   10.18831719316008
C        13.26517483541613   11.95705811606653   10.95969394439723
H        14.32442175091007   11.92134168043034   11.16513002898985
C        12.55427338644416   13.11165795269235   11.24833522530665
H        13.04177807035455   13.97582393189829   11.67298680566068
C         8.11487915836550   14.87448031523208   12.32558413298655
H         8.74573592956523   15.73597434485199   12.57534703165591
C         8.73185870178389   15.36987400153941    9.46620356535119
H         7.66667347306395   15.47483078055100    9.23851498932921
C         8.29725536052550    8.91532667699522   10.67573270627435
H         7.22293526927518    8.85282868405864   10.47649673437852
C         8.79065073126039    9.27861900122920    7.77831869942012
H         9.40355691309003    8.36995042516131    7.79358912719943
C         6.67604754011909   15.31406403053531   12.10317411638552
H         6.06335206258582   14.46035812677220   11.82234691042458
H         6.60546322983634   16.06463210927967   11.31934139313222
H         6.26919550588696   15.73862472467654   13.02008616385890
C         8.20490574400727   13.83979580930313   13.44331739208954
H         7.84069673040777   14.24901097378111   14.38429107851525
H         9.23590309701371   13.51748848327869   13.58234008893254
H         7.60359525941550   12.96747344945311   13.18749931502336
C         9.33056044302981   16.71858176901688    9.83859472240730
H        10.35226509518835   16.59059870807388   10.19035280982025
H         8.75364498434519   17.20700044017966   10.62056659662958
H         9.34675663334699   17.37286921599057    8.96797462503358
C         9.43186534402054   14.74560678563503    8.26051458273894
H         9.25438341572274   15.32213315686235    7.35411385407750
H         9.05783045732607   13.72447698978853    8.10793959539891
H        10.50640658387596   14.69248927090575    8.43322956172849
C         8.50644023659564    9.58528540191288   12.03255999127667
H         7.96402721834778    9.06642930301731   12.82146758352804
H         8.15235300436252   10.62427229843094   11.98617174224833
H         9.56535853380115    9.59716538177823   12.28939085150849
C         8.92504130859312    7.53023217309594   10.61980325663794
H        10.00789194948001    7.60582030198462   10.69633595525058
H         8.67885254312903    7.02067859582719    9.69090716283846
H         8.56368003273309    6.92262501071582   11.44851978781275
C         7.33368774758879    8.93935300110942    7.50073866456114
H         6.71743307851905    9.83026120034412    7.59788697217531
H         6.96311507633261    8.18650001128635    8.19244363552056
H         7.22400605455757    8.55459377620731    6.48771010538477
C         9.34296422882495   10.24287032408265    6.73248752198946
H         9.29282016462202    9.80853989133267    5.73530921461371
H        10.38147296243552   10.48677920964014    6.95181357960262
H         8.76571217595274   11.16724984089102    6.73876485700721

