57
CSD_code = HIGVAU | q = 0 | S = 0 | Stoichiometry = C26H21MoO8P | MND = 6
Mo        1.80993850863916   10.14116314005154   13.59088497286962
P         2.15270455128493   12.52639799563450   14.04100755540971
O         1.73627220045848   10.81569999257872   10.56107344232365
O         4.81401629626029    9.58668528200958   13.07903448630252
O         2.14870464008840    9.82644718918131   16.65898971447171
O        -1.27848877331667   10.17454997529873   13.84405573068278
O         1.47186057454289    7.11863133001360   13.02023525104244
O         2.34416949701889   15.42708148942249   14.18764673108451
O        -0.06744759260618   12.42079853799326   15.60415973637162
O         4.52607849729952   11.64661649467051   15.12610202557047
C         1.72436454503968   10.55798220160395   11.67324174399303
C         3.73123446454083    9.86165700098177   13.31417978444933
C         2.00105515236159    9.88956239303026   15.52982073050408
C        -0.14078796349938   10.24269697831151   13.77916686483867
C         1.58864701143040    8.23494640759278   13.23558722032694
C         1.05491376602843   13.73316609586729   13.23251902230464
C        -0.00919368884329   13.31609060505115   12.45070666841245
C        -0.86219922606166   14.23465894007560   11.86133245400827
C        -0.65086052573154   15.58604373337587   12.06053555317692
C         0.40892478430692   16.02775445556003   12.83709014607552
C         1.26798042315330   15.10923940535428   13.42595723545358
C         2.63161258980177   16.77904301187149   14.44095465049462
C         2.12263811704888   13.16382690958537   15.74794201685626
C         3.15907410375504   13.77805968798365   16.43091491436455
C         2.99486177781452   14.16311293053148   17.75074334467098
C         1.79155796932507   13.93564705705133   18.39281646039867
C         0.73262692593198   13.34887850956497   17.71878273218557
C         0.89417943276392   12.97040421383979   16.39369964051814
C        -1.37272719679029   12.31045758466532   16.12523149623801
C         3.78151484885195   13.02355914013017   13.41900660932003
C         3.99640871821113   13.77915052513394   12.27815415677607
C         5.28658763018105   14.01380131287202   11.83074940668699
C         6.36231643114973   13.47862655914254   12.51527509725048
C         6.16683555510035   12.68552227223137   13.63616953003433
C         4.87572589164911   12.44240799370931   14.07851804804624
C         5.54152493825862   11.03837304433998   15.88835045017760
H        -1.68625114669647   13.89596593139230   11.25240064448716
H        -0.16897688097482   12.25597699210348   12.30560742456400
H        -1.31135022244770   16.31144959837120   11.60901921332040
H         0.55667270291459   17.08763570205029   12.97537430933407
H         3.51560969874788   16.77776021057620   15.07654249755690
H         2.85210528109669   17.32296312732097   13.51663172748005
H         1.80965714035286   17.27280371860211   14.96932904753673
H         4.09041732212639   13.97821312785017   15.92447169115201
H         3.80747083111004   14.64047215898450   18.27817709596300
H         1.66479782493013   14.22487851512209   19.42563655543319
H        -0.20197533942572   13.19052551455372   18.23378428230477
H        -1.99650827129709   11.94638394077058   15.31154203228719
H        -1.74709792069025   13.28396221119257   16.45762537107167
H        -1.41099619413461   11.59824726570785   16.95559994336457
H         3.15160431750351   14.18186740691681   11.73680069908540
H         5.45048100242773   14.60965794569902   10.94557404679541
H         7.36881510586102   13.66327166060054   12.17034379898722
H         7.01825172484952   12.25278281980672   14.13806389678000
H         6.13701782548119   10.34910505792306   15.28101752074699
H         5.03104414438397   10.48057171907139   16.67196633101683
H         6.19778617843761   11.78636497906918   16.34515624704235

