77
CSD_code = HIGVUR | q = 1 | S = 0 | Stoichiometry = C26H39ClN3NiO6S(1+) | MND = 6
Ni        1.21901725201381    7.03476899106378   10.22989314904767
Cl        2.89736156248703    4.65734121971157    9.11636652759020
S        -0.31096021272439    3.07927396648951   11.36553230995891
O         3.29126457494859    5.50030155256897   10.22692908082942
O         2.31323688280707    3.48073297365685    9.63481712296434
O         3.99316075152307    4.41228945059539    8.28716833692211
O         1.88515108019170    5.41088732209914    8.41226907176582
O         2.79286683772476    7.90557645202017   11.18860547577803
H         3.28171800129688    8.52476644994108   10.62765355932441
H         3.36577594998160    7.12583293249570   11.28141903391488
O        -0.46586202345712    8.24568988248969   11.53450157084017
H        -0.12920641102362    9.10807847236950   11.80143918780885
H        -0.72002263044878    7.79009099819679   12.34382537395691
N         1.13603732843797    8.47263102984923    8.85732778240931
N        -0.22556130377123    6.44533384280323    9.35176947756925
N         0.79973148964339    5.42048331307688   11.44815189895855
C         1.58749536481103   10.84452798144284    9.22347721842821
C         2.47641697821697   11.90585625707635    9.13042507075287
H         2.16694661463797   12.88405206560343    9.46070446842872
C         3.74897829578553   11.73540281452250    8.61770667174733
H         4.41876677730599   12.57745368776112    8.54540718261600
C         4.16306656385365   10.48320473066794    8.20417552509952
H         5.15678082018441   10.35180123259530    7.80901767915406
C         3.31350416160249    9.38890110377530    8.28368909365406
C         2.01066277054570    9.58019501311225    8.77879133933825
C         0.20956254377341    8.27031645406813    7.98606342932067
C        -0.60452688292748    7.08237517670201    8.24041794740116
C        -1.62576071987172    6.56848444802452    7.44661005730856
H        -1.93803677256085    7.08460791100150    6.55322214194190
C        -2.22161680201255    5.36979004457532    7.81401259511321
H        -3.00935812792539    4.94917741609545    7.20842319932822
C        -1.77860428863543    4.69849732961448    8.94252912220246
H        -2.18812190821036    3.74455688643965    9.23488524095958
C        -0.76134190603781    5.27736488234878    9.69522652034565
C        -0.08048421643702    4.69450950187174   10.83999036753010
C         1.15711692518375    3.24087198863743   12.42480000813936
H         0.96561729852314    2.75136138283347   13.37399920410094
H         1.96018865164435    2.73035516349247   11.89345704975415
C         1.44642437119794    4.74763374044749   12.55717938303489
H         2.52477867296812    4.90944013493482   12.45585814995920
C         0.99963123205471    5.37623592121797   13.91143507239121
C        -0.52576685482550    5.35494838100194   14.03758396932873
H        -1.00277696396091    5.87259744356372   13.20672833696634
H        -0.82657071741580    5.83752092439983   14.96413800206194
H        -0.90180406776406    4.33518167002721   14.05794370667203
C         1.52634719698736    6.81453645704874   13.96012271579855
H         2.59965726328934    6.81257771874071   14.13160093700004
H         1.05714483230702    7.36294022339830   14.77306307208362
H         1.33934813044419    7.33047339652196   13.02192041336572
C         1.61887024173306    4.60734465221713   15.08230246758555
H         1.13359064351017    3.65051679655168   15.25209835144152
H         1.50904360082684    5.19184880524524   15.99235664336415
H         2.67892122296130    4.43381988487933   14.91573691270813
C         0.22312200394925   11.06130130240790    9.83525468891191
H        -0.33533217139655   10.12110531260038    9.80714225175650
C         0.38497206380180   11.48852564678481   11.30028452387865
H         1.05976567092992   10.81704094893207   11.83034757197596
H        -0.58169619492019   11.50234691802475   11.79846938806019
H         0.80385268318601   12.48912783497730   11.36251156119381
C        -0.57965589709704   12.11161948519773    9.06426291693556
H        -0.10724999781808   13.08766939063872    9.12584051173970
H        -1.57891318767060   12.19345083313350    9.48417336994058
H        -0.66796333710118   11.84395368949493    8.01443254746023
C         3.76225339182602    8.02892591852595    7.80805402728892
H         3.05597387704849    7.27968532112891    8.18039115419726
C         3.72600608424046    7.96827419942708    6.27812095588024
H         2.72610124401751    8.17188256492098    5.90205864494361
H         4.02000446291027    6.97459584631298    5.95228850329743
H         4.41256315949920    8.69491015624033    5.84908161865334
C         5.16097815364529    7.66054959806416    8.30971295670225
H         5.93210141878320    8.20110197377809    7.76708640602597
H         5.32146452860978    6.59629728422262    8.15476522224771
H         5.27523284103021    7.86908660022373    9.37231771615191
C        -0.03354442598732    9.11275215030562    6.78580885362434
H        -1.03891574675635    9.53091629295852    6.82338713530659
H         0.03402915093386    8.49561009542577    5.89073308792913
H         0.68965014896396    9.92111216436074    6.71730615984169

