50
CSD_code = HIGXAW | q = 0 | S = 0 | Stoichiometry = C22H20MoN2O5 | MND = 6
Mo       -0.48076027625670    5.03359501868679   11.54009132457061
O        -0.22234113551347    6.90221890369653   11.47315902760119
O         0.24390640489609    3.36932929131973   11.17886492202103
O         2.13013798853194    5.38558982901734   12.19654446387398
O        -0.34582070498037    4.97232409078941   13.18337915721199
O        -1.98247547756637    4.87405021014558   10.88381479110932
N         0.57303465540553    6.76165436613798    9.37676865105638
N         0.52304977752014    5.43318159762072    9.68263561194019
C        -0.06370107161570    8.93811066393499   10.25527556447755
C        -0.92070508560937    9.49972881939239   11.18337145332069
C        -1.21102849479533   10.86580548452915   11.17256522302578
C        -0.63900154895258   11.67830789212018   10.23255410097187
C         0.25247009220957   11.15378061557147    9.27404340567092
C         0.85291834011843   11.99221113319580    8.31005551756805
C         1.72430840524900   11.48914506494262    7.38666930112888
C         2.03764727795453   10.12221750081677    7.39569065665966
C         1.47120758117821    9.28207422443153    8.31495425849755
C         0.55622232339949    9.76381956556606    9.27282743111797
C         0.12296736592066    7.48423956373613   10.35638856072412
C         1.30336914713916    5.14924312723936    7.39840373981407
C         0.86308642474064    4.60507461667235    8.72244507115295
C         0.77338146905947    3.20522425801558    8.91131546890741
C         0.42584680423235    2.63720968903524   10.11443610283204
C         0.20927776465190    1.18949101613899   10.29248884369291
C        -0.64630748818078    0.79194402197575   11.32368690969610
C        -0.90871301629189   -0.54752447423812   11.53469731570677
C        -0.31472868550761   -1.50653134752506   10.72883239841971
C         0.54323174586808   -1.12041331053379    9.71114365570625
C         0.80530420777247    0.21869249401698    9.48865499370902
C         2.90446822430080    4.21982938430257   12.42064716637990
H        -1.38194405378387    8.85320834376394   11.91923158386970
H        -1.89153933464317   11.26937955003636   11.90714582104478
H        -0.86051362041850   12.73585722565328   10.20983205518945
H         0.60950052039093   13.04512246384989    8.32075091000072
H         2.17911973333482   12.13728999586684    6.65198823849211
H         2.73645507648757    9.73595932777451    6.66791793978389
H         1.70616186646276    8.23162878305039    8.32563796713892
H         0.95451196796982    2.57362062527392    8.05735846347576
H        -1.10932022781788    1.55799313114773   11.93787440132747
H        -1.57753125143290   -0.84633333800505   12.32766004419564
H        -0.51788495453612   -2.55393397654122   10.89459577527677
H         1.01209690843205   -1.86853742696400    9.08920326090099
H         1.49007748196415    0.50760101482153    8.70635222043490
H         0.56071204311609    5.85705330546517    7.03385775613691
H         1.44883401310575    4.35449054263247    6.67365087601084
H         2.23419997089821    5.70067395274243    7.52551979775392
H         3.40200402822763    3.97619136099913   11.48137697445724
H         2.27824070697431    3.37638911810032   12.73054241013954
H         3.66294777837964    4.41073421201732   13.18725062753958
H         1.62311833200974    5.55758847756604   13.00814778827123

