19
CSD_code = HIHCIK | q = 0 | S = 0 | Stoichiometry = C6H7AuCl3NO | MND = 4
Au        1.28355393756735    1.80515134854986    0.82106435680651
Cl        3.55946208705475    2.07655513956574    0.80046806224605
Cl        1.03148864723279    2.93427327196934   -1.07241126374410
Cl       -0.95533147186538    1.39117661243815    0.98120790442579
N         1.52040575903306    0.67199264088860    2.54542547773761
C         1.24631013913473    1.20311906631674    3.73418571608009
C         1.34084193129914    0.43944279161040    4.89194819811833
C         1.72867273805958   -0.88504020461357    4.80246640571574
C         2.02408191675356   -1.41266061154353    3.55342865664646
C         1.90577006145696   -0.59602726979174    2.44657549547269
C         0.80524015736458    2.64401169326443    3.78336830376175
O         1.36143059208630    3.44015693399957    2.76992870416224
H         1.10940983068001    0.88927165720237    5.84448850537578
H         1.80620986435596   -1.49381088856073    5.69013181429977
H         2.33972171248025   -2.43601137184835    3.43494623564261
H         2.12618092870859   -0.95662126026228    1.45370813399712
H        -0.27791326634134    2.66715961708348    3.60510491254937
H         1.00878219369291    3.06383334807226    4.77507231774219
H         2.31238224124622    3.55932748565848    2.90929206296341

