19
CSD_code = HIHGIP | q = 0 | S = 0 | Stoichiometry = C4H10Cl2N2Zn | MND = 4
Zn       10.64066974252895    1.39413257269791    8.89526695572093
Cl        9.68521194441943    2.06239194444476   10.75984448477243
Cl       11.56739602967784    2.25790384648170    7.09869377227272
N        12.18788294614098    0.10167429899822    9.65206797056570
H        12.95790642907000   -0.05367968238996    9.00664713182107
N         9.14157943649057    0.10950546903869    8.03378512135209
H         8.35029046451325   -0.06946465654048    8.64694041297124
C         8.76098367378289    0.26549396024719    6.63953310860679
H         7.70527118383386    0.25805680823503    6.40239668339346
H         9.35114815550123    0.98389648120007    6.08790737998573
C         9.40857351608352   -0.97211252885660    7.10196404004141
H        10.45215380374882   -1.12725631603858    6.86896503459821
H         8.82342572820873   -1.87791025551462    7.19856663120228
C        11.96019439573768   -1.00791686181007   10.56118226188070
H        10.92654264941876   -1.17321557155613   10.82835748911261
H        12.54474006366953   -1.90763108138031   10.41771912069164
C        12.61922563498279    0.21888660642370   11.03550848190972
H        13.68311929690568    0.21087440628158   11.23279797613016
H        12.04628490525308    0.91587056013377   11.63075594293565

