45
CSD_code = HIHSAU | q = 0 | S = 0 | Stoichiometry = C22H10F8N2PdS2 | MND = 4
Pd       -0.69834947853374    2.57440179520416    5.15521446048641
S        -1.28825349301255    4.81316292625559    4.98934722972951
S         1.52955882750633    3.29976815565506    5.06994779489400
F        -1.16293247941299    7.39837268218223    6.35740679357059
N        -2.55702571003264    1.75351550643589    4.55819026650698
F        -2.49414337631160    2.88942828075753    7.03144759168669
F         0.09737629874123    2.81302219837721    7.61459822020504
F         3.20815722755892    5.71849260005055    5.53660453081703
N        -0.31680853957105    0.58480936356902    5.39145758109285
F        -3.36350610772881    3.54832334105699    9.50525385825385
F         3.26766814576218    7.24709914760985    7.77826300618096
F        -2.00685973473022    8.00414488338916    8.85763806624934
C        -3.57314312770085    2.40148368060615    4.00764775964025
H        -3.49761359748506    3.48337661758797    3.98416395975182
F         0.13791537985950    4.40678946833095    9.83975594843755
C        -2.38655743241375    4.18432606924388    7.46217441826369
C        -1.71184583717997    6.44160794852792    7.12010883327713
C         1.69450443393428    5.86426160324168    8.83550657044202
H         1.71301698741836    6.48790432049953    9.71230979531996
C         2.44489273414041    5.39009970185518    6.58500396666078
C         0.87448896980943    3.94402039080441    7.64782660022921
C         0.89616243423722    4.73579234967568    8.78012502691972
C        -1.81637547372143    5.13747751940428    6.60536867548998
C         0.87214568053044   -1.19624812851175    6.42593738625434
H         1.78738469373859   -1.54855275219387    6.87285548598372
C        -1.39909911000121   -0.20435867266598    5.26273659033370
C         0.78448598978096    0.10326200991783    5.95450859728561
H         1.62921043779453    0.78112391331011    6.01456495118432
C         1.61743046843408    4.25946435420803    6.50316994155018
C        -4.67760196637370    1.74379056531690    3.48984965711516
H        -5.48748729081658    2.30477214591244    3.05275330452852
C        -3.64696489837071   -0.31602285003596    4.11875568542112
H        -3.64446760726311   -1.39324035953360    4.15460828475630
C        -1.38487137654290   -1.51873755526128    5.72607136510271
H        -2.26612280387154   -2.13398778957818    5.64622070672272
C         2.47451272269707    6.16973711637658    7.72964058754981
C        -2.57434510892878    0.41284720539548    4.63069802864110
C        -2.70469599349012    5.79168593489296    9.22563054186263
H        -3.03140113033340    6.03934805532742   10.22018489586163
C        -4.71012510566464    0.35841058201992    3.54431408532200
H        -5.54882390762887   -0.18943918428891    3.14267706555088
C        -2.81653011052689    4.50183121697616    8.73778702005721
C        -0.23762545616571   -2.02023446360572    6.31503160400848
H        -0.21219627947029   -3.03427836308911    6.68308442531453
C        -2.14153889844336    6.75134646881842    8.39865883563043

