44
CSD_code = HIHZON | q = 0 | S = 0 | Stoichiometry = C20H20MoO2S | MND = 10
Mo        2.77342404443759   14.09399134279333    2.30609015654049
S         1.45952688618324   13.19803121564216    5.35233666829529
C         1.83294384635453   14.93375071594914    0.86458371596389
C         3.48230889013276   15.87862582340073    2.35101986515579
C         0.55568107102421   13.98885461737322    2.82720677638519
C         1.34593911116057   14.33252259445077    3.95471648170329
C         2.01524910017524   15.59923401850468    3.96937183257350
C         2.92687295329720   15.85243920477771    5.14882064795209
C         1.21934038190609   16.84224164987965    3.56019522342112
C         0.05506242355496   17.06401524036279    4.47941280298592
C        -1.19706679043921   17.16897762839488    4.07339977731060
C        -0.24648482576991   12.84917797549596    5.69058413740770
C        -0.54778605961563   11.62197368592924    6.26774260968265
C        -1.85819312412827   11.31888882519297    6.58592267481481
C        -2.86734990073267   12.23152883936563    6.32461953105943
C        -2.55811538867372   13.45450285530039    5.75293148585468
C        -1.24914225490914   13.77374290621469    5.44067643938761
C         4.87950858409906   13.12798303918547    2.59284731750491
C         4.42606229904859   12.90983026542405    1.26187428307370
C         3.28209541787637   12.06768966481554    1.33285570626087
C         3.02175700595733   11.81192904972965    2.69075185950282
C         4.01125391068084   12.45998844820896    3.46604464262755
O         1.26067294470851   15.42898413538938    0.00017233475356
O         3.93494316927594   16.93887997137382    2.33869392304638
H         0.10990372455686   12.99484843177756    2.85013867308433
H        -0.13304035039861   14.72430140405413    2.42428574939064
H         3.53993149021795   14.97853117515212    5.36560711922222
H         3.58455375063066   16.69742494532516    4.95275355670238
H         2.34062583172315   16.07971596346375    6.04119913044028
H         1.88262819721815   17.71080759363173    3.61805479675419
H         0.85878256173523   16.76811965719563    2.53062361594245
H         0.29364035335745   17.14171647742304    5.53226174069775
H        -1.46258149620332   17.10264040228428    3.03051617347342
H        -2.00827653441797   17.33742974467768    4.76160583108876
H         0.24653399822838   10.91781298155391    6.46543250234113
H        -2.09146570519252   10.36491315939219    7.03492647201322
H        -3.89106603561804   11.99145862663294    6.56906942055776
H        -3.33867174975151   14.17373873178420    5.55372503290417
H        -1.01077186021808   14.73314395760383    5.00663788288394
H         5.80514871266350   13.61840753235409    2.86506085949937
H         4.98995653733469   13.13021209874223    0.36162130370672
H         2.79833015343115   11.59356275498939    0.48921679661364
H         2.28945309312054   11.11156831020367    3.07414395394760
H         4.14708163197676   12.34166233860688    4.53234849547243

