89
CSD_code = HIHZIJ | q = 0 | S = 0 | Stoichiometry = C34H42B9IrOP2 | MND = 6
Ir       11.18368050178017    9.22062092745397    2.30061883297939
P        14.40825631806432    8.11705803651817    2.26619224221037
P        11.82069388942977    8.10674398530517    4.23904098975167
O        13.27595374186168    9.00900093336032    1.81618672736816
C        11.04930150711253   10.84429106690813    0.85460090586109
H        12.06389345995245   11.21874780496151    0.75524715274200
C        10.74549380350362    9.65242669421574    0.22483612187359
H        11.52814314581732    9.18000521274748   -0.36370696872679
C        16.77993627762470    7.69395536623142    0.80513040233124
H        17.30755659841363    7.81809031117250    1.73927487962410
C         9.07204385803928    9.14908292280736    2.40035175294398
H         8.69772284114207    8.31160625448755    2.98244502055213
C        13.95725652564670    6.57433545952009    3.08001158166665
C        12.76137235583644    6.55519374314718    4.04670203289181
C         9.44779634667948    6.99405863326627    5.12313412936220
H         9.39388840530405    6.61773529628479    4.11310528933114
B        12.51438839150964    5.80779687651250    2.48449182892716
H        11.81562372622342    6.40073788394850    1.73428985415104
C         9.56033799478589   10.25135656470375    3.14737305505950
H         9.50790690200965   10.16852343414851    4.23476933758967
C        10.55359045240695    7.74914313687208    5.50957592862744
C        10.59848300225414    8.24754590340954    6.80663748115412
H        11.42884365939167    8.85906961856841    7.12620138283145
C        12.96129010221098    9.21029728609735    5.16130889344912
C        15.56270366249350    9.11657111213744    3.27250227994704
C        14.72232160646308    7.63042863729359   -0.42881057932224
H        13.64449043847800    7.70174238971571   -0.43861900367197
C        17.48009893175187    7.44216028290001   -0.36152983926172
H        18.55720612316311    7.36737231948856   -0.33534480203172
C        15.39619244304632    7.78374552111806    0.77537578668502
C        17.40694006673956   10.74924556782937    4.54938141496842
H        18.13077305137492   11.38051783643471    5.04356146704833
C        15.76700057205012   10.42045198355157    2.83806098205799
H        15.19692652763481   10.78373909649523    1.99433153419654
C        16.80386049630073    7.28529160164171   -1.55999908926666
H        17.35383234308292    7.08719933413908   -2.46814194372028
C         9.58239527393216    7.96513969500825    7.70301418582357
H         9.63679885156307    8.35274449392980    8.70994506131996
C        13.73619893192169    8.77358700299393    6.23204105092062
H        13.69210264891767    7.74022271368277    6.54098659590102
C        13.02177126507363   10.54937794350497    4.79128025535959
H        12.41995368158866   10.89020174703648    3.95860467846302
B        11.94273272274591    5.00249433503915    3.93578659621793
H        10.79923025933273    4.94219298654865    4.19781060087457
C        14.60835311465750   10.98984051040750    6.53094497893535
H        15.24859713437646   11.67828049267846    7.06213001998823
C         8.50254492848695    7.19097069132503    7.31621570615057
H         7.71439979214230    6.96862363612102    8.01989590307361
B        15.17142260993735    5.55768866022077    3.40598068530561
H        16.26333594590097    5.89491872249528    3.07434398766059
C        15.42216587714526    7.38259019609065   -1.59446856214681
H        14.89354534963534    7.25961302229417   -2.52846979468810
C         8.37070065559951    9.30995382265121    1.06139099401111
H         7.61068182480031    8.53391637259853    0.96253184835597
H         7.85354315712943   10.26966138398439    1.03982263662759
C         8.43554150451664    6.70924409334949    6.01914480014264
H         7.59197613024620    6.11166993235969    5.70677688250455
C         9.34949330721009    9.19461699565629   -0.12217274467331
H         8.97786999475731    9.76918692540580   -0.97711941413657
H         9.40522864156191    8.15052487056649   -0.43389872763918
C        17.20410068535586    9.45213596368614    4.98787349562467
H        17.76904871308210    9.07086838169023    5.82562214248583
C        13.84191880741800   11.43365301055809    5.46707299095607
H        13.88381295659347   12.47021934767156    5.16603210324017
B        13.02527498048363    5.51613170416930    5.28025816895160
C        16.28254616424110    8.63528393396954    4.35483122363716
H        16.13594011751072    7.62025729232904    4.69101796146961
C        14.55212999566388    9.65950136656213    6.91171476762569
H        15.14591170713499    9.31028493235489    7.74365447987166
C        16.68160555533146   11.23719353738480    3.47444343319733
H        16.83654924456145   12.24940530181937    3.13016962835234
C         9.49552242112326   11.68877617513891    2.67362281992931
H         8.46526226498261   12.05041853480300    2.75129844239343
H        10.09724558313052   12.29227376371396    3.35595370163800
B        14.47926979588154    3.92122130661192    3.27944311240078
H        15.14940662048341    2.97951070064996    3.04795018962798
B        12.78762724550271    4.09128132460831    2.73046325591653
H        12.24402985097070    3.27305545960804    2.08039761352626
B        13.18216492973504    3.88300654255060    4.50027493380191
H        12.86404033731048    2.89830890159230    5.06873188080289
B        14.75103598251499    4.72571183805650    4.86000419701334
H        15.47932719322599    4.21669378334152    5.64484674825973
B        14.07572610135782    5.11240701674246    2.07610504543904
H        14.43419798201371    5.19663604766241    0.95472084491749
C        10.01716815316873   11.88064607308277    1.23535810788169
H        10.46217853386722   12.87367868945836    1.15224709676395
H         9.19147161592268   11.83756516587134    0.52463531088560
H        14.31047222022259    5.76239640080736    5.48148309450330
H        12.48043056843795    5.69122722219417    6.31986792223676

