62
CSD_code = HIJBUA | q = 0 | S = 0 | Stoichiometry = C34H25AsAuCl | MND = 2
Au        5.99866552629101    8.62612121966746    1.37980931130954
As        7.23865771285099    7.30057673229088    2.85212858390718
Cl        4.74380108823202    9.97691881379945    0.04537522651919
C         6.61987703088676    5.50066787780364    3.10210093781311
C         7.62718001792620    4.62461602895755    2.82582684826604
C         8.93103260395697    5.21874257992975    2.51214863377109
C         8.98668411426316    6.57935004270934    2.51064738312438
C         7.45880710732746    8.12239085514653    4.58369228615907
C         7.03137422517978    9.43213800011972    4.76975951816120
C         7.18792701101759   10.04023523470054    6.00402471272380
C         7.76832784897039    9.34084661564594    7.04947822228359
C         8.19554503527954    8.03453488329460    6.86617434457303
C         8.04301516076045    7.42368848374710    5.63441199079327
C         5.20386464375412    5.24646885457879    3.31743195503709
C         4.43850770617908    6.25829449382910    3.90815532549638
C         3.08495789844426    6.09701840033016    4.12057427089054
C         2.45961881196319    4.92297379059784    3.73043742894451
C         3.19782475055345    3.92394033277637    3.11807542265788
C         4.55489371263530    4.07875262553571    2.90942589982758
C         7.51135091175769    3.15831427251200    2.88273624500229
C         7.81582259520743    2.37612863289141    1.77214729602126
C         7.73558848280899    0.99812665803749    1.84796599340499
C         7.36122492786463    0.38581173660657    3.03216099921263
C         7.05770427967678    1.15776131095418    4.14165600219915
C         7.13083011818978    2.53576826338800    4.06913741880907
C        10.06205094380625    4.33959773140396    2.17329996664956
C        10.50559558630509    3.36176544514958    3.05903659903750
C        11.55078182505005    2.52716344252908    2.70880163525261
C        12.15851001839962    2.65321106463675    1.47117540303171
C        11.72275327665115    3.62463170526033    0.58463604143648
C        10.68232481508906    4.46449077784518    0.93230422772073
C        10.13114700330508    7.45656584219489    2.33904136416635
C        11.44015247120593    7.07361884411125    2.64300911459426
C        12.48294568333153    7.96578426738006    2.48492811387595
C        12.24712493975762    9.25258961570831    2.02862203355464
C        10.95079289045702    9.65401040912674    1.74518202079100
C         9.90541064957524    8.76814466262036    1.90671290790125
H         6.57168933873553    9.96136881665624    3.93670998595720
H         6.85647513802147   11.05760597788894    6.14981852208292
H         7.88874296895070    9.81480844365585    8.01208453419843
H         8.64748926848600    7.49412975542448    7.68528226210444
H         8.37349766200846    6.40067674316859    5.47623302531635
H         4.93120995488750    7.18233629910334    4.21364396104054
H         2.51397665533864    6.88794752245036    4.58321305777218
H         1.39997021960823    4.79470284953400    3.89099979705397
H         2.71117352623318    3.01665016091921    2.79199458996304
H         5.11053274520721    3.30139858135317    2.40840815697009
H         8.09937682850360    2.85263154659832    0.84497096876024
H         7.96882654538144    0.40057674921680    0.97929620168849
H         7.30555902762696   -0.69075752731376    3.09044541831382
H         6.76681711091352    0.68445486627681    5.06729403385607
H         6.89529874930116    3.14204693997774    4.93310085405795
H        10.03834958981036    3.26533403323843    4.02876742907419
H        11.88931337787082    1.77361854892527    3.40455000286953
H        12.97038591968358    1.99612964347083    1.19757175501198
H        12.19333629537058    3.72623202837364   -0.38202411845930
H        10.33581912006576    5.22134050361256    0.24214789069933
H        11.63556443310252    6.08098393969247    3.01949073887404
H        13.48928716154720    7.65454383225921    2.72386935963444
H        13.06769183472901    9.94246023223033    1.90228336254991
H        10.75636206416826   10.65803206510176    1.39898243315134
H         8.88418103954925    9.07838690039782    1.67633409252714

