79
CSD_code = HIJCOU | q = 0 | S = 0 | Stoichiometry = C38H34ClO3PRuS | MND = 9
Ru        6.07455355553713   14.57073537012766    6.63912539239352
Cl        7.83250874160526   16.07021730664612    6.70938870540332
P         6.62971716352253   14.28311148516073    4.43579411096382
S         7.32337516298300   11.96359162369649    6.23878013808601
O         5.98076083469083   12.04049344970500    5.65532814272047
O         7.64408965013881   10.72926598963123    6.89130859471855
O         7.57220910748140   13.15117556453428    7.09929140717368
C         2.87292956276773   12.75916550061554    5.96508070731865
H         3.53260006664146   12.02912422867431    5.49602510561800
H         2.32162590250083   13.29322822371141    5.19419163046511
H         2.16804722674989   12.21881091882251    6.59567835175593
C         3.69927795276488   13.69312903361148    6.79155817535829
C         3.86502941637584   15.06411374474675    6.43013090394375
H         3.31980137527921   15.45303754446297    5.57280965944330
C         4.46423232495614   15.98463966712473    7.32297208029271
H         4.37259595597624   17.04744583476804    7.13274486088665
C         5.06814823320569   15.52495962572957    8.52424404583889
C         5.10605203423770   14.13848595549248    8.73392450407789
H         5.58747151805853   13.75365036267493    9.62704408098293
C         4.36712606466930   13.24323702243046    7.92139402160989
H         4.30537151833088   12.19961801417208    8.20229295422268
C         5.56721845833124   16.46424871917647    9.59781762744765
H         6.43747387802179   15.99843329792569   10.07322651111031
C         4.45713619950938   16.60858142474521   10.64838144296489
H         4.79354214783788   17.25596603771354   11.45419797962604
H         4.18718457067604   15.64254160244743   11.06997770136197
H         3.56853371287496   17.04884714177211   10.19940591796755
C         5.98884426355094   17.83512997249845    9.07329013004886
H         5.12815834244073   18.41055001126190    8.73899048608185
H         6.69343997026512   17.72186899663035    8.25177857386823
H         6.47423947969543   18.39205146619788    9.87078947368908
C         5.31131525727237   13.59286636353377    3.33062413623100
H         5.32567004255847   12.51021139287083    3.45467397197146
H         4.36790275215315   13.97990603832229    3.72476149428293
C         5.49304653614686   14.00048699761603    1.90696115553159
C         5.98100024537148   13.07494983395273    0.96787068166904
H         6.22987660596827   12.07847744160573    1.30336970369355
C         6.13729965847898   13.42534364276488   -0.34251299469540
H         6.50766579640918   12.70936346200114   -1.06175725861397
C         5.82779369392305   14.72949500307794   -0.78085467897101
C         5.99447455760180   15.11770659228814   -2.12659606932479
H         6.34782398795934   14.38239517410756   -2.83547617561304
C         5.72079380712864   16.39505698905483   -2.52607589073618
H         5.84992252942797   16.68462998543876   -3.55852008634375
C         5.27962378859373   17.34480682710234   -1.59182949544582
H         5.08273737171765   18.35578646348453   -1.91681139038462
C         5.10296581763861   17.00011510885740   -0.28142529376696
H         4.77171325922867   17.73710853568675    0.43426371001505
C         5.35310605120788   15.68209625113455    0.15984903530079
C         5.17681563575105   15.28633363478929    1.51162340826659
C         8.09578313679252   13.27418600751118    4.01246839568881
C         8.91101681798869   13.49719115715243    2.90335950185712
H         8.70273105828385   14.30070914395170    2.21467672666793
C         9.99983601468558   12.67461001313208    2.66328889074462
H        10.61696925781641   12.85531976813676    1.79545660975330
C        10.30565796106113   11.63007274228815    3.52138340638846
H        11.16125425370382   11.00088891475480    3.32865526316414
C         9.50270683006490   11.39767960843617    4.62716106578476
H         9.69376471826211   10.59441615942598    5.32129429863091
C         8.41433139369949   12.21214915763766    4.85009762155018
C         6.97094668292546   15.89494608217384    3.58785223898362
H         7.68883217151159   16.44787878606138    4.19569235264178
H         7.35879411650669   15.73519472486790    2.58172321115932
C         5.64818776641265   16.58727014471067    3.53562770737405
C         5.30939824986848   17.53341926303284    4.51867993010685
H         6.04956566878286   17.77568287762372    5.26823630412384
C         4.08140868744540   18.13419812142678    4.50432904821264
H         3.82206017703745   18.87822194145018    5.24449046400287
C         3.12026040789560   17.79417604669781    3.52871974488583
C         1.83205109885417   18.36934466688994    3.52098826229277
H         1.58944398924451   19.10177566078409    4.27801666379597
C         0.90757594180407   18.00778216439152    2.58212616352172
H        -0.07639543398315   18.45322524928534    2.58384086834843
C         1.22861599095157   17.04695353325031    1.61071658426976
H         0.48451610177675   16.76102008981141    0.88188287803375
C         2.46956833546899   16.47522078909247    1.58514234328299
H         2.71336287986857   15.73278503539505    0.83962971571857
C         3.45297682194275   16.83888291360113    2.53095947933702
C         4.74753711712376   16.25980836245717    2.54020287915780

