71
CSD_code = HIJCOT | q = 0 | S = 0 | Stoichiometry = C30H38AuOP | MND = 2
Au       -0.42620406473252    4.19059507081628    4.34839888378519
C        -2.22719963832817    4.60342369001776    5.34092804274685
H        -2.73589191888373    5.40380922323278    4.81098648714562
H        -2.87345760750471    3.73664505656373    5.43079701172924
C        -1.70987391611601    5.05318902509771    6.62216683693764
C        -1.61449951955322    3.98657776004434    7.70858704708812
H        -1.50676589911491    2.99114473312863    7.28666719124555
H        -2.53178332789554    4.01999071712832    8.29507090318504
H        -0.78029453456655    4.20181864727836    8.37278003965394
O        -1.32820076614556    6.19540671495362    6.86133264802775
P         1.73618195228665    4.05124021158446    3.52283990270900
C         2.83664142025517    4.62839546171387    4.86975281728733
C         2.39331573997004    5.76897692296418    5.56690502992082
C         2.99546081285154    6.11272709963733    6.76948413554259
H         2.62734046617369    6.98086926873052    7.29691107348301
C         4.03482204198201    5.37393350045951    7.30621878448579
C         4.51870622152004    4.30659368729678    6.56477511946058
H         5.36864645789424    3.75093841246694    6.93647104480965
C         3.95221206319609    3.92415380359565    5.35817547417337
C         1.32741154998984    6.69237383190002    5.06634099760444
H         0.41478697746303    6.58946887323177    5.66035232163804
H         1.09316804418613    6.53213292655370    4.01592003212098
H         1.65921326238743    7.72401773600481    5.18541794062708
C         4.66198430608207    5.74768561699931    8.61293822371593
H         5.55018951492659    6.35656138149404    8.43992591211159
H         4.96680848243499    4.85974286240648    9.16266630052118
H         3.96980062312095    6.32294342547840    9.22239779551489
C         4.62549511480379    2.80270389145638    4.62223843443166
H         5.67520097536328    2.76103918899435    4.90874808989953
H         4.57156810525868    2.93842940875158    3.54586749981298
H         4.17664885032881    1.84010504297715    4.86524695653347
C         1.93810726310022    5.13613270645329    2.05962294108024
C         2.91443324882720    6.13558876684497    1.91384737039128
C         2.80540487102705    7.03838845107200    0.86535821146336
H         3.55808862507082    7.80815498105835    0.76658335756932
C         1.77601549283404    6.98232442781458   -0.05982891759234
C         0.85558494957946    5.95329902253492    0.05882856854476
H         0.06524894662417    5.86174797929912   -0.67308939641089
C         0.91771966909671    5.03585786220352    1.09568441101140
C         4.11945411887284    6.26207886825823    2.79686242907377
H         4.91048080306258    6.78653515116038    2.26353166682460
H         4.49808051989420    5.29019562025989    3.10066144874501
H         3.88956680931857    6.83099801648877    3.69662773990920
C         1.66488789643412    7.99579023981763   -1.15517737414880
H         1.21384925212532    7.56015800731123   -2.04376525781853
H         2.64114726154093    8.39956974390087   -1.41296707206214
H         1.03328607484024    8.82244139360408   -0.82833671304598
C        -0.11102678542232    3.94734582443425    1.12637858834305
H        -0.95500508778450    4.24210894713832    1.75463968937897
H         0.29378577994528    3.01815786713304    1.52448507426878
H        -0.48871383411338    3.75944644495697    0.12298217835164
C         2.19809643241965    2.33667016718679    3.05713825415279
C         2.77109035672042    1.94740586109067    1.83459926400319
C         2.83728052854036    0.59708749983522    1.51574529258688
H         3.27273421571124    0.31294994043661    0.56782864896232
C         2.37871660182666   -0.39112660751683    2.36903218336371
C         1.88067745190798    0.00199443621058    3.60175898104938
H         1.55776416163790   -0.75236950892527    4.30564265684561
C         1.78248719648728    1.33703833375893    3.95858461086197
C         3.38574686095738    2.90017489069551    0.85275674520179
H         4.12010087030349    2.37363114441701    0.24559753766007
H         3.88526717324086    3.72453267254481    1.35315257418005
H         2.63601020501444    3.31701229025147    0.18131785152415
C         2.43539439840547   -1.83900056662864    1.99460303427283
H         2.99662111679737   -1.98305300610745    1.07497188510620
H         1.42717211261270   -2.22607572499419    1.84823225040421
H         2.90215989359158   -2.42131277997556    2.78723628323932
C         1.25350673950526    1.64714869832566    5.32557003206050
H         0.17147297014972    1.79185040514275    5.28930365506654
H         1.69930075184307    2.54836267680833    5.74202984766637
H         1.45677229774009    0.81782566288988    6.00106048995521

