65
CSD_code = HIJFAI | q = 0 | S = 0 | Stoichiometry = C30H29N3O2Pd | MND = 4
Pd        6.07940104921526    7.41389694770973    5.49822596456499
O         7.36079310379989    5.80854259070584    5.16202486526165
O         9.16121101720656    5.27936758859710    3.96678245846529
N         7.26074210023072    8.22324380348819    4.23037776499341
N         5.14294537914972    9.06438532880129    5.57438578904498
N         4.60799232942673    6.91335772868199    6.88966122642985
C         8.29804589878398    6.06080108856975    4.32007388656531
C         8.24998706199816    7.48346837528901    3.76256014135397
C         9.03360357115055    8.25340698475327    2.85215681180924
C         8.45626311690679    9.50558332913229    2.79852845939692
C         7.31242382495717    9.48981463560312    3.69355456367752
C         6.38974672381532   10.47656168616060    4.03868961271592
C         5.32764584566183   10.26152523330459    4.96283437792388
C         4.30168100033444   11.15157395353299    5.44502654172841
C         3.52725527637998   10.43678179320501    6.34228065792294
C         4.08790608331415    9.13016423534753    6.40823154313497
C         3.81630774333520    7.92666596295368    7.11102705235065
H         2.96558820002151    7.85261655371533    7.78494042522602
C        10.20742916266162    7.72206906883995    2.10152996760076
H        10.63940089456882    6.90227510482719    2.67623920308633
H        10.96182513856338    8.50228499026160    1.97662933510015
C         9.77951007236293    7.19086129561358    0.73169486326095
H         9.08490352694130    6.36521694470033    0.86018561598008
H        10.64428464065087    6.83097031972574    0.17938034033556
H         9.29147454213652    7.97047627941866    0.14984575032285
C         8.92506720515755   10.65371101838469    1.97787662189698
H         9.82896734445403   10.38044518946530    1.44033001251029
H         9.13522468487241   11.52063704748915    2.60300906723933
H         8.16559933016375   10.94814104315507    1.25414871431198
C         6.52379752374107   11.81691715226063    3.42937849815920
C         5.90395964640199   12.10964850204861    2.22155298164035
H         5.31759100252933   11.34842939977898    1.72739595531887
C         6.03393609028693   13.36602807803787    1.65667556313903
H         5.54470254233780   13.57926358199932    0.71700949653186
C         6.78323912083346   14.35446914861734    2.27992047048880
C         7.40343005034395   14.05346190142137    3.48793004966442
H         7.99172389821145   14.81148660554547    3.98515277501151
C         7.27741208669530   12.80187958084336    4.05876277765357
H         7.76462376119132   12.57810214397009    4.99684681142661
C         6.93262817045351   15.71652730247979    1.67548695670295
H         6.60310020980393   16.48196013109408    2.37674336313706
H         6.34894576330380   15.80535140366984    0.76303142938159
H         7.97797255948751   15.91217021408319    1.43892347852603
C         4.10070223660588   12.57696194913846    5.06315540205340
H         3.21663446873721   12.97451354290290    5.55466764143462
H         3.97764812956081   12.68012710617518    3.98610088075216
H         4.95840114955608   13.18148590984764    5.35578561601036
C         2.36741620358606   10.90649013957609    7.15668650616462
H         1.68519832642542   10.07130196573430    7.32806133256609
H         1.81821524013660   11.67978608283444    6.61676636575476
C         2.83694426513239   11.46254784447301    8.50322276223279
H         3.37303281407914   10.69840687788336    9.06141610644623
H         1.98772950658968   11.79542931054745    9.09538940148322
H         3.50656108431281   12.30529076087740    8.34996202784702
C         4.44809994698397    5.68193270631384    7.51872711040685
C         3.87009899585458    5.52660846774481    8.78122330608526
H         3.54824588080150    6.39025088966611    9.34471877634181
C         3.75506121859922    4.26485340055519    9.33298838067515
H         3.31940894591809    4.15119062481603   10.31477585304068
C         4.20145529077911    3.15093930316202    8.64007734159017
H         4.10763269082555    2.16967159720217    9.08035995888224
C         4.78510371067780    3.30105360971830    7.39061280762839
H         5.14695048981373    2.43639843074409    6.85582937033568
C         4.91755592039578    4.55645946239355    6.83314806865445
H         5.39101519078681    4.69705875041347    5.86508274262319

