47
CSD_code = HIJGUC | q = 0 | S = 0 | Stoichiometry = C16H24Cl4MoSSe | MND = 7
Mo        0.42890818524737    1.06278895404783    3.89459762467077
Se       -0.19282696772766    0.65447784410359    7.60851430145238
Cl        1.91428748914841    2.61607527667481    4.79479742088542
Cl        1.83852353593594   -0.73900575599915    4.48972925937390
Cl       -0.46653045511804   -0.40445108535995    2.28390247088042
Cl       -0.54116886232425    2.89322553785023    2.79701904598005
S         2.36096562688083    1.24986871495477    1.81192105153975
C        -1.35388776922754    0.84438736162198    4.90616809075997
C        -0.37349961226980    0.84075487573553    5.80578584535183
C         1.76152177760578    0.91246463136053    7.76308022426371
H         2.20063721882636    0.46009624324681    6.87254246027443
H         1.94197725150452    1.98809479958642    7.74751908889934
C         2.29789594116253    0.27943265013994    9.03352168375002
H         1.81044571461681    0.72798653048543    9.90437559690741
H         2.06737402069731   -0.78922652677204    9.03555028660086
C         3.80936033541859    0.47307733428446    9.13931890067750
H         4.03805507806061    1.54094149262003    9.12008369714353
H         4.29012407913136    0.01569730056949    8.27204830482010
C         4.36575724061530   -0.14374920735050   10.41656107371042
H         5.44141090492951    0.00341310617025   10.47356260201429
H         4.16322047227944   -1.21204924586531   10.44418633097925
H         3.90965098655845    0.31381786563102   11.29182479383663
C         2.62777298912118   -0.46622967819213    1.21296182709690
H         2.42207410230389   -1.12672384639796    2.05630889143205
H         1.89435227546738   -0.64896506780181    0.42925153245010
C         4.05297060338863   -0.65798870049231    0.73108940167748
H         4.18789483301033   -1.68314900099261    0.39246920335952
H         4.75016368613704   -0.46706327335210    1.54302206664749
H         4.28828929043620    0.01459794385176   -0.08949808529009
C         1.42666301785030    1.97029758566713    0.41246257963108
H         0.52759460733395    1.36724230801141    0.27444451707515
H         1.14363881020464    2.96442270911842    0.76030979538380
C         2.25522421827860    2.06283952476809   -0.85308173446732
H         1.69394257069299    2.60763094830361   -1.60926663296416
H         2.48818348857869    1.07746871464808   -1.24882696303963
H         3.18364023589694    2.59552253100336   -0.66076745502383
C        -2.78006110175640    0.77615728703271    4.86670465082533
C        -3.46280360627199    0.94352899356999    3.65612174087335
H        -2.89741352516265    1.12913399371051    2.75317670521747
C        -4.84141031526424    0.87788147811425    3.62495770948277
H        -5.36493354731710    1.00961693706033    2.68980670753175
C        -5.55531639698458    0.64239788297060    4.79049694662889
H        -6.63352353226287    0.59010134489552    4.76132140605225
C        -4.88737279951409    0.47393549120729    5.99530166924060
H        -5.44590919462732    0.29058982111666    6.90113371946076
C        -3.51071552347348    0.54110380362125    6.03874766405376
H        -2.97634737797034    0.41023157083932    6.97244198191229

