91
CSD_code = HIJHEP | q = 0 | S = 0 | Stoichiometry = C48H38AgP3S | MND = 4
Ag        3.89954958405692    4.55276752593417    3.97451480881321
S         5.35675132805643    6.53060901355446    4.41417476437225
P         4.22574166119363    2.06387667623178    4.46318538350972
P         3.20664746761601    3.38035156517792    1.85505268074621
P         2.17540040031267    5.76981102253667    5.39669599901103
C         4.36981502691972    1.06326553704322    5.97474143438992
C         3.28229944271773    1.09687554959585    6.84845143938309
H         2.39086400139704    1.64141489340965    6.56053509928754
C         3.34527846780177    0.44472861894132    8.06344291762112
H         2.49740755364301    0.46909162013788    8.73242325266709
C         4.50224623544561   -0.22825402859712    8.42719666550538
H         4.55566599547259   -0.73424616614917    9.37985986848926
C         5.59404503819322   -0.24041408583782    7.57512727114059
H         6.49900384133868   -0.75457084692415    7.86475384607161
C         5.53591201710091    0.40821019621077    6.35378781848450
H         6.39332111786026    0.40546815020452    5.69526216584401
C         5.66022249757071    1.54919124876810    3.46764010765748
C         5.80662163126608    0.24143850495789    3.01366384776924
H         5.06548019246949   -0.50407349521223    3.27013688692393
C         6.89741297873564   -0.09567766824901    2.23531500313109
H         7.01138541446755   -1.11000449786461    1.88089219087173
C         7.84182191415522    0.86417278144215    1.90523162933920
H         8.68859688900701    0.59575019977247    1.29095948736851
C         7.70109941770669    2.16431584841208    2.35991540831861
H         8.43664515558125    2.91215170772389    2.10433582645588
C         6.61191498666495    2.50764860461369    3.13988940422803
H         6.48946955880170    3.52726809797860    3.49892566910798
C         2.90670403830872    1.20490063059945    3.54447951321237
C         2.35389982630559   -0.00578091037980    3.94783606702044
H         2.70498168609172   -0.48337351415172    4.85181302398859
C         1.35185805949977   -0.60099079459223    3.20210473209709
H         0.93010783304144   -1.54098486932922    3.52665758325454
C         0.88937172021769    0.00470358743300    2.04458534136092
H         0.10551854090678   -0.45984474863902    1.46475862023809
C         1.43506419870664    1.20570502933535    1.62837210115966
H         1.07748489473441    1.68015359174724    0.72474087957696
C         2.44548530386130    1.81104203981842    2.36757655052649
C         1.91459848433695    4.08145318157905    0.78195082150897
C         1.93969879020621    4.05032524564998   -0.60785608282001
H         2.75811948658393    3.56877663142421   -1.12521279684340
C         0.91217426821923    4.64017898951117   -1.32344304551868
H         0.93118711764655    4.61599487760036   -2.40346331224879
C        -0.13555676942611    5.26148825835160   -0.66334219234753
H        -0.93103309552799    5.72213057887513   -1.23028756109821
C        -0.15925982046066    5.30090804921822    0.72249261076176
H        -0.96750636500411    5.79368317017745    1.24272074127917
C         0.86539705975236    4.71841871809627    1.44151310768999
H         0.86806757053276    4.75709651362922    2.52545532214569
C         4.46712638497543    2.83705984144306    0.66218388207651
C         4.57233980545995    1.54288109581166    0.16757436312927
H         3.86986941652141    0.78205221235381    0.47847841561643
C         5.58544350342018    1.23070241491836   -0.72149615208211
H         5.66823825858500    0.22368655253878   -1.10401243412622
C         6.49000958026965    2.20008282452182   -1.12093134520845
H         7.27798921381787    1.94773757990972   -1.81503184158577
C         6.38895145754246    3.49108437171838   -0.62649750760149
H         7.09768356035097    4.24625941752849   -0.93255760845385
C         5.38595915585220    3.80750288742553    0.26841578214696
H         5.30784980004630    4.80652059038876    0.68157483873547
C         3.07704264485869    7.27479837695696    5.85890925562367
C         4.38890837856153    7.54119065114503    5.42186817084870
C         4.98029770607348    8.74146045318746    5.84638795597308
H         5.98320319574679    8.95197373305347    5.50513269276214
C         4.32403742866479    9.62043370964328    6.67273611079890
H         4.81382514845091   10.53323519964113    6.98144872587145
C         3.03632189201809    9.33762069871883    7.11809846970435
H         2.51942899425621   10.02191789046513    7.77461830152921
C         2.42925510876686    8.17034564115300    6.71119011866614
H         1.42753115669358    7.93691240402592    7.04959058563641
C         1.85818378627976    5.11013595682935    7.06454837597898
C         2.90456996427262    4.37538360410915    7.61855968969798
H         3.80059007006888    4.20664170000223    7.02498360486993
C         2.80571481961059    3.87039911678538    8.89949194218858
H         3.62273513102689    3.30237688623875    9.32049929351516
C         1.65342143565860    4.09024186574195    9.63857509731727
H         1.56964879956324    3.69520274794328   10.64057582318257
C         0.60973708579492    4.81888276154453    9.09276845606055
H        -0.28674017085775    4.99313351400694    9.67087125111536
C         0.70720653016669    5.33277196586704    7.81142168292900
H        -0.11287235782570    5.90144534368378    7.39540966204073
C         0.56482878681833    6.39643421135568    4.83620413501769
C         0.42978994952652    7.65408340449803    4.25614445310014
H         1.27644140606492    8.32612583712109    4.23361700160330
C        -0.78337226348117    8.04085062469514    3.71586776383108
H        -0.88470046930087    9.02173449004032    3.27418219885866
C        -1.86511388492507    7.17580783031971    3.73623646420214
H        -2.81237053719750    7.48308374336043    3.31686065109693
C        -1.72815396501766    5.90921593895199    4.28496063435483
H        -2.56643197497889    5.22675501934402    4.28742308384796
C        -0.51702816909106    5.51569027638334    4.81911495788717
H        -0.39577840719428    4.51989378484792    5.22844009582351

