91
CSD_code = HIJHAL | q = 0 | S = 0 | Stoichiometry = C48H38AuP3S | MND = 4
Au        3.73412018381542    4.58481704006781    3.56614121138943
S         5.46711640359814    6.22833128864444    4.19872262261166
P         3.93665505295079    2.16529000300328    4.56766440025288
P         3.25405876842290    3.29078926019111    1.72875506081738
P         2.33149050447985    5.60037927147657    5.21088579887748
C         4.06524323395705    1.09472028492282    6.03775514234419
C         2.96621013803436    1.08140350210096    6.89703283645451
H         2.07295791101443    1.62921801200563    6.62160977676687
C         3.01722080767734    0.37642767760600    8.08250822667597
H         2.15741944363146    0.35854714886737    8.73636940048528
C         4.17806993555971   -0.29278722715871    8.43827001794120
H         4.22286704641765   -0.83800722504941    9.36952575382580
C         5.28468036476482   -0.24961912588197    7.60674832992450
H         6.19426460671780   -0.75839177871868    7.89173611399615
C         5.23597176369586    0.44563342843333    6.41131864055862
H         6.10318229492677    0.48092503616557    5.76653489311101
C         5.42346055581734    1.71204032429807    3.62016257624188
C         5.53617846311499    0.47792556101863    2.98509399067833
H         4.72720556938840   -0.23841540824291    3.04744343638069
C         6.68133202853789    0.17389166706156    2.27417004400198
H         6.76472548767904   -0.78071554306203    1.77471020338758
C         7.71875468700393    1.08965835398084    2.19865103688010
H         8.60794220589138    0.84863217884831    1.63466026818476
C         7.61602487110119    2.31029518194840    2.84372236541252
H         8.42398134812955    3.02444083122725    2.79040189920622
C         6.47172482216951    2.62382909143114    3.55457910033245
H         6.38334641777929    3.58213087046925    4.04907560900948
C         2.68398823485316    1.29787198788566    3.56505104290158
C         2.00219193778622    0.16531974137747    4.00156566752662
H         2.23043796436534   -0.26022792199535    4.96819999006415
C         1.04071729823452   -0.43081270671769    3.20596960307988
H         0.52854675875707   -1.31343184533096    3.56046664844065
C         0.73184591478156    0.09748501969601    1.96203396131809
H        -0.02417387563374   -0.36594164794848    1.34548948191815
C         1.39875268718004    1.22051789964564    1.51119264446370
H         1.16178208015427    1.64570220445221    0.54439074772036
C         2.37939874772019    1.81851821943968    2.29851411971517
C         2.04969232219787    4.06693004394326    0.62508204615635
C         2.22149164757692    4.22954117762174   -0.74397487737684
H         3.10159597623548    3.83219202829651   -1.23090907106252
C         1.25600950199556    4.90159369581327   -1.47405626410328
H         1.38363932919831    5.02802480393307   -2.53918198279808
C         0.13248052498707    5.41420657608560   -0.84679199277979
H        -0.61340506716121    5.93930056822250   -1.42486508694548
C        -0.03243474042973    5.26445478630320    0.52268251659796
H        -0.90066538714701    5.67427857037787    1.01789587966717
C         0.92671665707025    4.59949448478003    1.25789858635022
H         0.82284165364050    4.48806003147938    2.33162442969047
C         4.54582888097553    2.67700315371258    0.61708197395846
C         4.50155272478512    1.43807258402875   -0.01198676690321
H         3.66894507971377    0.77001072024253    0.16128228359021
C         5.53218685595615    1.06937661647292   -0.85673906456361
H         5.50281977616510    0.10805635389744   -1.34905887863557
C         6.59979235659332    1.92608856892072   -1.07277542601192
H         7.40064961431965    1.62920419716395   -1.73386880786657
C         6.64723644334578    3.15706970075658   -0.43852340147771
H         7.48418790439210    3.81980476951250   -0.60030315910061
C         5.62492325492361    3.53236203686447    0.41206317631423
H         5.65214931298095    4.48128858400643    0.93384457467904
C         3.23241699315380    7.10532835473342    5.62157661131578
C         4.54726836683815    7.32315778552426    5.16856565263907
C         5.17454349085175    8.51440312100011    5.55944204077865
H         6.17955994747713    8.68999594811646    5.20675838723712
C         4.54640789190542    9.42727989828902    6.37233996696442
H         5.06122322205507   10.33465125071464    6.65481568796592
C         3.25884428611893    9.18640702228999    6.84255188418576
H         2.77119031886116    9.89594801588645    7.49464806441132
C         2.61601779701206    8.02707995828196    6.47041180567269
H         1.61744629837152    7.81450973578330    6.83310143491250
C         2.29161495809273    4.80377509224790    6.83414245205844
C         3.52494532539828    4.30174890523321    7.25076840881993
H         4.38515882574660    4.40397644219274    6.59805936706154
C         3.64632376478100    3.70003674167116    8.48670669363348
H         4.60259879428021    3.31409958454287    8.80854568833938
C         2.53631751917951    3.58797867167660    9.30997358334357
H         2.62805438517037    3.11522564497494   10.27695461602569
C         1.31108972966879    4.08479522351967    8.89688769656961
H         0.44904611566936    4.00228339683908    9.54401478887188
C         1.18107515862085    4.69634426390607    7.66224948168551
H         0.22545446262802    5.09516973412127    7.35041722442502
C         0.64616036549287    6.09818571867521    4.80472685544516
C         0.34918927765415    7.35990195333193    4.29623573887800
H         1.11462719480024    8.12332493269565    4.27635020301483
C        -0.92166150628964    7.62928257187573    3.82241798892504
H        -1.15229233837998    8.61275503745481    3.43884592479895
C        -1.89562364708948    6.64391289878599    3.83084241521222
H        -2.88758526321469    6.86058086295163    3.46158071055461
C        -1.59295332398080    5.37316222293624    4.29753226376155
H        -2.34545793530360    4.59737151883301    4.28280009904945
C        -0.32506296464854    5.09544610056349    4.76770461737725
H        -0.06886479769114    4.09747668179430    5.10408829585019

