83
CSD_code = HIJJOB | q = 0 | S = 0 | Stoichiometry = C23H51N6O2Ta | MND = 6
C         0.97559838736594    8.30728798880282    1.93635892225550
H         0.35980719831220    8.15469712400394    1.05220914383633
H         1.00285822175472    7.38060413747414    2.50737593096764
H         1.98619303185729    8.55705328114073    1.61860252023202
C        -1.03519859947646    9.13823002686718    3.18445759892260
H        -1.44022604064087    9.93920240988903    3.79636137575687
H        -1.07630840725145    8.20736618608013    3.74724517966507
H        -1.65576781057977    9.04686984676187    2.29861587382682
C         1.27104138737092    9.62580390128080    4.04024356354032
H         2.28252243337404    9.90304407830535    3.75192985866228
H         1.30732088311880    8.69972636204208    4.61161032370207
H         0.86281909053917   10.40954130706025    4.67617673156958
C         0.40626735154052    9.44542130683797    2.79009789813056
C         0.49474284443103   10.72178248903110    1.94598803881684
C        -0.51819321822175   12.45289693886784    0.76501517649402
H         0.11229890763279   12.21252546671032   -0.10210571942808
C        -2.42482418377119   11.70633446454323   -0.65351701667437
H        -1.80567777846827   11.59801502091857   -1.54196540704098
H        -3.44863627342597   11.89922845242173   -0.96721343139814
H        -2.39450475399485   10.77579578274849   -0.09319750037322
C        -1.90687992755614   12.84163693194722    0.22582783657838
H        -2.60389044153476   12.96139708247860    1.05806139755789
C        -1.82958393550047   14.14746909071700   -0.56020523023470
H        -1.51344050439209   14.97087451518036    0.07687359095973
H        -2.80188681598572   14.39174065361868   -0.98448546127795
H        -1.11128840278260   14.05874783203193   -1.37260108637050
C         0.22198898496252   13.58519660498924    1.45527124605150
C         0.31958612841375   15.29955361594341    3.16442423733314
H         1.15458391527248   15.60571834252955    2.53278109110291
H         0.69479174421544   15.06395341978368    4.16695783547281
C        -0.73979069732208   16.39784216824352    3.25423995352876
H        -1.07057723554431   16.65954230255515    2.24705928917669
H        -0.30231829561694   17.28764008405836    3.70923610956891
C        -1.93260441908071   15.91107550745317    4.07420532380817
H        -2.70877697313205   16.67797096495067    4.09852305537225
H        -1.61329103321456   15.72446119783366    5.10238085509602
C        -2.48473229697655   14.62080256592052    3.47167136017135
H        -3.29010983644612   14.22482277761174    4.09152898940318
H        -2.88754167779722   14.82706985833444    2.47863489012835
C        -1.36687703070510   13.58387982374782    3.36503965770783
H        -0.98150902912564   13.37060959429271    4.37135430478993
H        -1.70359867069553   12.64339890129662    2.92984205595436
C         1.73848280717972   10.44404301706779   -1.47818086876806
H         0.63755696278400   10.46268712397973   -1.52728185132292
H         2.03372925827114    9.73721604929218   -0.70567578331835
H         2.09671387486073   10.07742034235758   -2.45227831214197
C         1.91938471419241   12.67206855160591   -2.22122532786646
H         2.37077736132086   12.38430769856995   -3.18361341813242
H         2.25725247925047   13.67095341934146   -1.95532012346288
H         0.82851766727387   12.70271164867448   -2.37539820753348
C         4.08007904273039   15.09338255867399    0.13418222490011
H         5.06484730394811   15.51321192243660    0.38689959266294
H         3.42631674114759   15.18084896646850    0.99679029626537
H         3.66344090229791   15.70290806724294   -0.68213362759485
C         5.12854618825268   13.59680935639073   -1.34154396912903
H         4.85876051285099   14.26354033810580   -2.17403524925525
H         5.15293777473861   12.57526464647266   -1.70923964417795
H         6.14251210450231   13.87669684028272   -1.01630370279809
C         4.95654592971537   10.05819704590023   -0.68770508492694
H         6.04444138273517   10.20534593411594   -0.76864880369321
H         4.47836962839243   10.48161301652509   -1.56684383440337
H         4.77192979317701    8.97387814606343   -0.67973465081416
C         4.96808468643225   10.03131201715202    1.66854385387730
H         4.70334190884921    8.96333643874626    1.67836397527215
H         4.56218548379478   10.49682668793029    2.56158318137407
H         6.06550573078752   10.09970747807788    1.69752916897886
C         5.07361029676314   13.30217872907308    2.74779951731268
H         5.07028984713750   14.34847503664211    3.09153214444202
H         5.68779705042883   13.22518417134519    1.85367654669810
H         5.53859918630497   12.70263407271312    3.54592293871286
C         2.94575129459067   12.93287090263151    3.65758701022094
H         3.36818748649332   12.31912941015532    4.47093411771546
H         1.93245886347153   12.58917485725412    3.46108036424551
H         2.90208212506346   13.97017492892256    4.02952144585629
N        -0.61046868137339   11.30014468966500    1.63928117720798
N        -0.27263279847236   14.11177337496846    2.58271343998897
N         3.73596884728980   12.83888920232691    2.45904995901173
N         4.18668335929247   13.70456938075060   -0.25101597045662
N         4.43039540623785   10.68519507789040    0.50004023862213
N         2.28164023520962   11.74751326268747   -1.17419646305227
O         1.68036305255332   11.09709916242839    1.60534426677026
O         1.28566903523771   14.00727559618045    0.97477014693597
Ta        3.13455893336449   12.23180042560750    0.60581892243090

