87
CSD_code = HIJKAO | q = 0 | S = 0 | Stoichiometry = C31H49N6Ta | MND = 6
C         1.85983661648753   10.02545965758048    4.73689755792756
C         2.84635534454040   11.00271994535738    5.04233409769716
H         2.82319913128709   11.94584766472009    4.51805903681338
C         3.77299323723307   10.73538197780503    6.01034146696723
H         4.52145057583806   11.47061658753194    6.27160126882551
C         3.75838052350481    9.49494541609492    6.65407660024498
H         4.49934481868617    9.24048291461593    7.39491561444783
C         2.76721814367792    8.58662895248704    6.32660887223622
C         2.77978491328568    7.23955242199001    6.95567390468580
C         1.90036540675173    6.93680134929900    7.99698318558795
C         1.91654960778739    5.67023563538647    8.55830644930202
H         1.23405363835795    5.44052778245488    9.36543760384998
C         2.79612192477895    4.69303142526292    8.11290148168180
C         3.69383903910853    5.02396473740123    7.11120366590692
H         4.40684277396980    4.28559460530711    6.77112060793128
C         3.70999896405695    6.28789774073718    6.53487613810161
C         0.99158640585586   11.15357010221070    2.84852357253837
C        -0.02129103898577   12.11613676222338    2.70727092040257
C         0.04014910787156   13.03618747820743    1.67368829644427
H        -0.74682316543197   13.77284110363324    1.58322116300522
C         1.08797623279169   13.04788804171599    0.76545389572729
C         2.08786109493031   12.10071746160051    0.91680910634356
H         2.91760487481680   12.09124543370274    0.22260966643611
C         2.06022014343507   11.15929902962003    1.93399164745982
C         0.98254760624693    7.99562183159375    8.52206854885484
H         0.34069497890606    7.60235321163384    9.30697973628591
H         0.36985786642091    8.37936642301793    7.71216209741343
H         1.56161224738137    8.82572915552713    8.92760945265534
C         2.76965001853553    3.31367176503066    8.69968889750550
H         2.05111670718369    2.69344298499479    8.16214009745415
H         2.47138022058958    3.34280337866848    9.74528841219440
H         3.74574613815871    2.84034352315447    8.62381152885523
C         4.75907539209917    6.59998147097831    5.50706671674282
H         5.71414297233617    6.77534289815493    6.00412999170447
H         4.50770798251710    7.48860633857075    4.93629428015168
H         4.88725123539390    5.76251770496505    4.82412564658885
C        -1.14532464719311   12.19244814026250    3.69665687201526
H        -0.84350139037269   12.80823797807098    4.54554848730941
H        -1.39296983870389   11.20104440520757    4.06555096380178
H        -2.02442325511657   12.64760402217964    3.24418482262593
C         1.12466823246804   14.04288376080985   -0.35618094590944
H         0.55254743155603   13.67059884873674   -1.20714588877098
H         2.14599229562090   14.21745585710912   -0.68698767857280
H         0.68739026152443   14.99010473499961   -0.04733744517938
C         3.17962281443159   10.16500499382528    2.03185922779455
H         3.99768048588504   10.56426381525591    2.63470468407548
H         3.57067283549731    9.93640606916633    1.04153394490116
H         2.83536243714563    9.24891692672566    2.50458559021904
C         0.83243043765416    7.28929402750264    1.51828081453100
H         1.72528984234562    7.73098338323614    1.05259032664889
H        -0.03026028364020    7.88109311201306    1.22852950844501
H         0.72165568572048    6.27507660206332    1.10199106704667
C         2.13452364639444    6.50883260720939    3.30486091626585
H         2.14651591748995    5.51672847196587    2.82805685702194
H         2.18430472185028    6.37703694787072    4.38252081878909
H         3.04511353664410    7.02931570575028    2.96803954310854
C        -1.26494461735382    6.26416911083258    6.54843808426290
H        -2.17523254763737    5.64741365875338    6.53542541685428
H        -1.51199355910219    7.23384310133796    6.96614521451141
H        -0.53808234061594    5.76685604265284    7.20523861319260
C        -0.40138397330392    5.11237624597258    4.70388548220440
H         0.43533273133680    4.66639602569477    5.26190933411462
H        -0.13437769980909    5.18228711206072    3.65411880247233
H        -1.25748110804912    4.42977540619897    4.79989698444183
C        -2.75326982586684    7.11229062554632    2.75009190700676
H        -3.78767066937534    7.47520293333446    2.83982337127867
H        -2.58899523930599    6.33433460790259    3.49084404578324
H        -2.64840662736477    6.67024025795733    1.74776998758099
C        -2.08932077724716    9.26371237416357    2.03694108723251
H        -2.24031711194306    8.89278082792031    1.01275517148243
H        -1.26429072961450    9.97325754633584    2.02485588039051
H        -3.00841279915087    9.79475943286008    2.32657028944494
C        -2.79232973448285    9.17821693841601    5.77554224722962
H        -3.11553652029883    9.03871746482354    6.81860394045731
H        -3.15344112482519    8.33934821130417    5.18690442133954
H        -3.27577744187371   10.09964545542222    5.41468300913412
C        -0.91623033618668   10.30615619038759    6.59397960666405
H        -1.42954793332888   11.25937812384876    6.40079108369378
H         0.15458855982105   10.47422970443100    6.50455692270398
H        -1.14528957094184   10.03893846379924    7.63875456659491
N         0.89635056769314   10.16470815607637    3.83712379357519
N         1.81693064854396    8.85201024850065    5.42331557751684
N         0.94439804903181    7.24484652395854    2.95665236610546
N        -0.73058837945501    6.42356103814553    5.21576742531025
N        -1.80471028786217    8.18085669004957    2.94942288584351
N        -1.35055013573009    9.27632321159198    5.67633000575797
Ta       -0.28231231330961    8.17568294652304    4.28574876268248

