30
CSD_code = HIJLIY | q = 0 | S = 0 | Stoichiometry = C14H8CuF5N2 | MND = 3
Cu        3.68862114505002    0.32314176411145    8.35363404684626
F         5.74111160769620    1.74133975545350    6.86776077315380
F         6.61654622815950    0.31719180056740    8.27015014353993
F         4.67790982166780   -0.39497526949829    5.40674531404023
F         5.60050743095120   -1.78014932873458    6.76572904304339
F         6.81608564130891   -0.41733432640629    5.63153745785940
N         1.78708540461421   -0.02661570597510    7.66901351954219
N         2.74262664313653    0.28741077935466   10.14676149625118
C         5.48806933179084    0.50176480141625    7.46477544752872
C         5.67249489935554   -0.51267166873391    6.31585967580454
C         1.35832017240198   -0.18209666062221    6.43657939023520
H         2.10282905325403   -0.12218395541439    5.65549030343959
C         0.01112448251726   -0.41616278325680    6.13812454707704
H        -0.29226140299755   -0.53688336328367    5.11059301613332
C        -0.90525294267346   -0.48814453875069    7.16094165179126
H        -1.95205454821883   -0.66662377357560    6.96254066789447
C        -0.46757950146630   -0.32682029536502    8.48755925876268
C        -1.32826715741860   -0.38344247724908    9.62148496033561
H        -2.38035462709351   -0.56008684578407    9.45350204284313
C        -0.84487082764241   -0.22085662306479   10.87804849382567
H        -1.50379389378466   -0.26499062739765   11.73252241908562
C         0.54148998153311    0.01143214130744   11.11184741280066
C         1.10070605689859    0.18468514174226   12.39008967327443
H         0.46386521905413    0.14482027042039   13.26164498491963
C         2.45397014253637    0.40157630028994   12.50572720597362
H         2.91409701872996    0.53731632989824   13.47133672081049
C         3.24405603269526    0.44537634809456   11.35262513457917
H         4.31001248296691    0.61176914658890   11.41357918205295
C         0.90874832466590   -0.09602001565558    8.68495561930551
C         1.42005778031207    0.07383367950594   10.01134039724572

