67
CSD_code = HIJNUK | q = 0 | S = 0 | Stoichiometry = C24H40Si2Ti | MND = 12
Ti        4.61334014498537    9.67220337366006   10.81086821581715
Si        5.06227928954269   12.46078674094391   10.37560201978555
Si        2.55644105672799    8.44100702317943    8.21192071889238
C         3.59417005951813   11.57786607672043   11.21663183559442
C         3.82862464403994   10.81764187717762   12.44756698322760
C         2.57106932265774   10.48956763050607   12.99992813329504
C         1.57718531217828   11.02237961406947   12.16590030796933
C         2.19006850348415   11.66404215594455   11.07535839088163
C         5.14119197675962   10.26082091863319   12.73394167552508
H         5.18360069638042    9.60091249419671   13.60223914879110
H         5.98156019630970   10.96127929184202   12.72732909129017
C         2.33117769693216    9.81160700051465   14.31401683794177
H         3.27045369388274    9.49373860022382   14.76321028957137
H         1.68517038115286    8.93887924058440   14.20388699265661
H         1.84132008685365   10.49651531959048   15.00895580012427
C         0.09995294601900   10.94481993130551   12.39438975362288
H        -0.14374835919954   10.16979387236426   13.11813955497449
H        -0.43053294982106   10.73230777885779   11.46550153622086
H        -0.27851544756825   11.89495339335513   12.77712181477013
C         1.44018564264440   12.38611190139145   10.00093402757195
H         2.11791379716671   12.78100087308320    9.25075836389423
H         0.87597770296927   13.21692029874749   10.42946722088858
H         0.72368090470827   11.72639473066119    9.50880569913971
C         6.03388471155464   10.89139429606774    9.90114131063957
H         7.02161043014916   10.81941476806250   10.37277564252764
H         6.15726720556684   10.77057957389227    8.82077308578412
C         5.92194244889266   13.65596011954717   11.61307582668094
H         6.91155209726498   13.93313145952721   11.26251478446391
H         6.02915048866307   13.21596116788062   12.59890246631282
H         5.34632674210469   14.56943100754087   11.72604343766022
C         4.64487966169999   13.56709363462233    8.86559199002822
H         5.55259060585308   14.04545554392524    8.51379490887748
H         3.94624227026469   14.35259449756803    9.13047579483656
H         4.22869996357005   13.00912680881137    8.03433589341100
C         3.75164851772377    8.01076679883200    9.60313778716311
C         5.18175040378643    7.96071711228584    9.46888373697967
C         5.73411173187074    7.62340922503408   10.72818264379032
C         4.66142453114634    7.45167151663427   11.64800672115203
C         3.44890048129217    7.68425719553699   10.95921140440544
C         5.94305522655063    7.98848953950574    8.17482407288062
H         5.42403750512734    8.57807761957351    7.42287543607834
H         6.05044492437875    6.96992596174943    7.79232277810798
H         6.94362558466321    8.39968451906468    8.30948245312211
C         7.18416759946905    7.38892451160723   11.04041813505598
H         7.45926621702828    7.85783283455818   11.98776267905285
H         7.82228283932935    7.79734470321899   10.25834331257599
H         7.38788395256404    6.31838333933027   11.12072345863484
C         4.80215678987650    6.90077259754830   13.03777073166697
H         5.78270019249597    7.12966479995355   13.45245220952764
H         4.69570851323790    5.81271408045566   13.01484353373097
H         4.04000473208865    7.29852435173047   13.70605672781600
C         2.07350499054736    7.46392100350721   11.51828793647245
H         1.50154112898172    8.39274803956757   11.55962710736888
H         2.13328631969154    7.05201032684943   12.52375648650861
H         1.52599353986755    6.75428497808633   10.89720259268958
C         0.72686213407942    8.60714898844387    8.74263195364977
H         0.14083915252986    8.99547914034441    7.91466128404995
H         0.60947478684406    9.28960410454247    9.57820304941783
H         0.29246825774813    7.65449018829626    9.02521827273211
C         2.62379300174312    7.13469001027469    6.81333265412734
H         1.94804739421036    7.40711995994721    6.00891001624480
H         2.32541155329030    6.15527095069860    7.17409814034457
H         3.61723973510776    7.03687930560877    6.38909019702602
C         3.08057793645886   10.16522146977552    7.54509362393350
H         2.23022211694834   10.71875510546057    7.15784704659422
H         3.80683262917024   10.09568847609795    6.73982514339401
H         3.52602165629871   10.75313423094024    8.35191712006021

