29
CSD_code = HIJNOG | q = 0 | S = 0 | Stoichiometry = C12H10NiO4Se2 | MND = 4
Se        0.95713239929724   12.70270647453255    4.08509354496872
Se       -0.44361326195896   15.56314407496622    3.11179707905860
Ni        1.47849483656928   14.89839254834095    4.08974679859002
O         4.97556757987725   11.61902647165455    6.06008475492126
O         3.15130499348949   14.44669502122564    4.89696258348807
O         2.01159306299863   16.73233737232432    4.16983268013829
O         0.85221908099650   19.98049247524571    3.28489477755243
C         3.45609662945139   13.23814437431681    5.17326158689485
C         2.54614453559515   12.16481288457033    4.87320969225797
C         2.91791244712291   10.85192904947868    5.18872963377041
H         2.25543219181270   10.02977442168498    4.97232109081853
C         4.13123016408195   10.63680697879416    5.77598885172404
H         4.50679843820036    9.66586946127848    6.05908713630948
C         4.67100204893790   12.89174012660760    5.77651923986668
C         5.70191523076378   13.90534847989594    6.13949605273587
H         6.04937557522588   13.75071776950002    7.15936418594483
H         5.25956288974093   14.89257728010226    6.03973565782367
H         6.56259996223465   13.83402099743179    5.47398591068672
C         1.26670799125445   17.66608926732347    3.71914038564450
C        -0.01494012683297   17.36614914863480    3.13799032477215
C        -0.80476965295483   18.41790719847371    2.65701363920734
H        -1.76934820412199   18.22029086341311    2.21859983691309
C        -0.32822531057243   19.69342141829814    2.75353065886774
H        -0.85835378772092   20.56868254466705    2.41171113389056
C         1.64591075150124   19.01302818227261    3.76165511115079
C         2.94614958007788   19.46101787241549    4.33685076450324
H         2.78488264706844   20.05014278492892    5.23962821834357
H         3.48926475135839   20.07898727860610    3.62346413711816
H         3.53055255650665   18.57924717901316    4.58390453204066

