99
CSD_code = HIJPAT | q = 1 | S = 0 | Stoichiometry = C46H40AgN12(1+) | MND = 2
Ag        4.62197263002573    2.73321521018343   15.23520097170647
N         7.33113485812419    6.81192794458811   11.17603449683892
N         5.25235815833613    7.22297013900465   10.11980700915786
C         4.96010151120876    2.79382914016839   19.37565784632365
H         5.35470146465378    2.79364981096501   18.36473593090993
N         2.95621524119754    4.16182602541626   17.60919914814152
N         3.65489173280091    5.52535482392739   16.11351722951292
N         4.47126226783919    8.19689373386102    9.65707156416345
C         4.22661537070736    6.01873093120840   14.92439724067686
C         6.04199368601033    7.44367095201131   11.30566636529844
H         6.18057449630664    8.53158795189863   11.37490674672151
C         4.47705588802759    5.87934376169739   12.53906927108232
H         4.21515890045544    5.41481694818187   11.60135153552873
C         3.90115173451877    5.42172938771415   13.71002331603146
H         3.15122981715128    4.64081017594357   13.67986655381140
C         5.37035845728659    6.93984406589356   12.56832264684198
C         3.07844329626458    2.88815534596780   20.85652132021638
H         2.01095012727531    2.94547836389286   21.01425006360190
C         2.67554879391067    2.96575340636012   18.36746260486645
H         2.81983387165552    2.09421392282636   17.71762516349474
H         1.63290372547653    2.98660825597112   18.69101499213048
N         7.55062831614518    5.58225451299770   11.64714906831232
C         3.58374256178784    4.20772376009009   16.42354707582234
C         3.58637443422707    2.87291717050512   19.56587562741922
C         5.81515116316560    2.72314288808043   20.45971214657062
H         6.88136584260663    2.65868488047402   20.30356900621238
C         4.26930721138595    6.37883603894208    8.36147995035791
H         3.95500359980734    5.72977183606134    7.57139648930856
C         2.64901946138603    5.42025019214619   18.04548193986947
H         2.14997685931088    5.60067009029388   18.97487792442873
C         9.39277746456343    6.34704191749255   10.61458530045055
H        10.38837520772293    6.39262127920465   10.22600192868211
C         5.67631145068429    7.54460600412358   13.78108957096670
H         6.36532524080417    8.37485585523414   13.80978687952294
C         3.93441106786643    2.81886231278086   21.94391582160314
H         3.53073582761141    2.82964242953702   22.94466948190182
C         8.79437157833390    5.29341084939179   11.31934705434984
H         9.22824128618404    4.35536341555764   11.60331324487307
C         5.16195088323325    6.10276282186167    9.36723825833981
H         5.73665061528379    5.22689807804779    9.59038440087928
C         5.11128057859685    7.08901197361366   14.95712019773761
H         5.36327386670764    7.55370816580387   15.89823477888872
C         3.86886505733308    7.70353857136146    8.59599701460765
H         3.18068213027024    8.30471284457277    8.03717668036447
C         3.09468100922478    6.28565214599628   17.10394151593663
H         3.03559534970805    7.35269351082534   17.04970116448456
C         5.30178159959420    2.73666571702610   21.74676744630954
H         5.96853042872186    2.68675048423567   22.59348987435182
C         8.41500876733460    7.30686191611242   10.53894172755027
H         8.40854552990188    8.28028980875595   10.09279131617027
N         1.91168408294054   -1.34512634590125   19.29306061408951
N         3.99004452558346   -1.75658276851423   20.34994927933793
C         4.28459504246877    2.67242487278624   11.09406358929482
H         3.88960356625481    2.67259215019224   12.10482615820531
N         6.28805535473834    1.30490507382695   12.86124900132110
N         5.58916453339528   -0.05881451640178   14.35665309534846
N         4.77070092941949   -2.73070725899242   20.81300382742684
C         5.01721380015240   -0.55229437260092   15.54562041541067
C         3.20074667083901   -1.97712094392177   19.16383877240472
H         3.06197586069744   -3.06500882649829   19.09454279448749
C         4.76637538320856   -0.41309685661175   17.93091722005064
H         5.02819723791457    0.05128709396734   18.86872667981829
C         5.34258717961728    0.04451274252525   16.76011288904443
H         6.09266306867376    0.82527358411491   16.79047725226137
C         3.87284211140185   -1.47339419674864   17.90138642216920
C         6.16685956607694    2.57855088383919    9.61393615807236
H         7.23442804036023    2.52151684657868    9.45662831307836
C         6.56878193258749    2.50107161581325   12.10315609565898
H         6.42401494178961    3.37254710719309   12.75297243241883
H         7.61156756779178    2.48047562547671   11.78004062588300
N         1.69267877348641   -0.11529644227375   18.82211885307528
C         5.66034096588087    1.25885322967416   14.04679343670944
C         5.65841830996690    2.59369987979628   10.90438132979616
C         3.42994616663023    2.74280966277754   10.00967188540998
H         2.36365497247092    2.80698613199157   10.16539540039745
C         4.97272986659656   -0.91264345702314   22.10857566189301
H         5.28695130149998   -0.26362551419875   22.89872996236569
C         6.59532662290818    0.04653711860515   12.42485512134066
H         7.09451308455222   -0.13375992470698   11.49551270178248
C        -0.15009565783692   -0.87987784106528   19.85370825486196
H        -1.14586406059299   -0.92530695211381   20.24186494124258
C         3.56701876769680   -2.07800054556723   16.68850782434139
H         2.87783910004502   -2.90810581692169   16.65960283159952
C         5.31129407139494    2.64754864302739    8.52620467536805
H         5.71535609346107    2.63679209814909    7.52560782994119
C         0.44884232711837    0.17373939002655   19.14937778055118
H         0.01530563790496    1.11194571797461   18.86540903868242
C         4.08050822743913   -0.63636637329549   21.10249900707673
H         3.50613748354630    0.23965249485391   20.87911097902717
C         4.13236880738783   -1.62241672777429   15.51262644795924
H         3.88046549790796   -2.08697359261936   14.57141880361517
C         5.37286517363067   -2.23747580345432   21.87426697777695
H         6.06068223779331   -2.83882033179356   22.43335506304575
C         6.14952430744727   -0.81898583916484   13.36621875302680
H         6.20859923875432   -1.88603424983247   13.42033478803664
C         3.94382081882787    2.72935219545564    8.72281652095515
H         3.27738734357822    2.77897410801454    7.87583112700661
C         0.82741426468204   -1.83995022755050   19.92955823743676
H         0.83344844119556   -2.81347430991835   20.37549922657788

