81
CSD_code = HIJQAT | q = 0 | S = 0 | Stoichiometry = C31H45N2ScSi2 | MND = 8
Sc        0.12830013978271   15.34283461463890   10.10463389083598
Si       -1.79666694553984   18.19926157828794    9.02866559138920
Si       -2.58753596873695   13.03643606238572   10.79539565220650
N         3.20391890712630   15.94587045869750    8.79725365812361
N         2.72473039596294   13.89448979387309    8.43005872220461
C         2.25774196924875   16.75437752757784   11.44786145180617
C         0.93402968376479   17.15066646167371   11.70067721059917
H         0.54916224322109   18.15058814234446   11.54260924903694
C         0.25321499513145   16.12773129690632   12.41099665065037
H        -0.66661179035542   16.26206270748022   12.96613238968735
C         1.19642068647353   15.08542169469286   12.64629677460300
C         1.13916058466660   13.91005272339008   13.41183459206119
H         0.21693898162327   13.62939442681249   13.90318257141942
C         2.27130543990246   13.14786512825781   13.55726507548607
H         2.24560696688900   12.25068045854719   14.15943574377713
C         3.48048991365785   13.51907349860089   12.94653087213658
H         4.35330635715832   12.89754149583659   13.09301333458822
C         3.57270163060503   14.65773919651349   12.18398539242091
H         4.51771530281164   14.93609855601770   11.73297065012668
C         2.44108990344451   15.47218205904095   12.02635289570783
C         3.28151879143237   17.53368834718891   10.68491012605958
H         4.28575949261866   17.21306884204934   10.97193317803835
H         3.18999813403957   18.60165749659811   10.89694374647821
C         3.09812674784482   17.33635618405024    9.16581162078858
H         2.09860266238506   17.69283448083696    8.88176791259367
H         3.85549189784805   17.89926235590725    8.61255117382144
C         2.20198171245005   15.04433853795012    8.92150996823028
C         4.02231422518757   14.07089365022606    8.03133223951730
H         4.60521602570632   13.28015609673631    7.60533528803593
C         4.32528838115468   15.36898871784473    8.26966869454314
H         5.23105740152407   15.91442810564264    8.09908556293341
C         1.98787941900298   12.69538969278108    8.21246356691594
C         1.09828865073805   12.64535686725222    7.13762822280020
C         0.38031850055949   11.47704952964775    6.92687588911673
H        -0.31711571367843   11.43319883965773    6.10319604120100
C         0.53083282796809   10.37457955578083    7.75411884744231
C         1.44218024434466   10.44502486516534    8.79919927660842
H         1.57189229028073    9.58867948781802    9.44455924544289
C         2.18224837596330   11.59079279195268    9.04292137019486
C         3.15408395762382   11.65239028853733   10.17737311141200
H         4.16753417262673   11.82652095670008    9.81658679107143
H         3.14486101662301   10.72311774266258   10.73989624477312
H         2.89732143813538   12.46845690329874   10.85338155663543
C        -0.27253930002560    9.12929792979622    7.54235495407783
H         0.38059170997652    8.26206879739590    7.45743860731651
H        -0.87809591699661    9.20204405901664    6.64291835121264
H        -0.93306078575132    8.96626842130155    8.39317537899640
C         0.91179412007719   13.83001862854640    6.23878199554542
H         0.36986566511207   14.61589714637340    6.76959934283901
H         0.34138535500994   13.55124533056980    5.35715870900367
H         1.87169381871523   14.23496879162798    5.91969283233241
C        -0.82585936460531   16.66936263438051    8.51395199576780
H        -0.10380941933138   16.97092477378283    7.73577148828405
H        -1.53532865956327   16.00359040178347    7.99474815105213
C        -0.79439444375661   13.30049490860250   10.27674381364709
H        -0.68151900704306   12.80799639314516    9.29655100049376
H        -0.15346582519369   12.72158237909902   10.96627109218334
C        -2.58712536978161   17.87391666994791   10.75073431926458
H        -2.51421272655799   16.81418607577486   11.00818489988426
H        -3.63874915986924   18.14327432902652   10.76493292093075
H        -2.10012777711653   18.44190165894422   11.53798130198790
C        -0.64952129920750   19.73622159710770    9.13205665253966
H         0.27161374979851   19.52485176481589    9.66748450806064
H        -1.14197572550853   20.55978179949334    9.63999434081092
H        -0.37656973785811   20.08331263687432    8.14011611617459
C        -3.22949784091253   18.69873892376962    7.85486068980349
H        -2.86677164527393   18.89983450106276    6.85127216720502
H        -3.74707954074179   19.58892550864587    8.20055304007340
H        -3.96232279615828   17.90062733900413    7.78207242324724
C        -2.93038359095582   13.74963478401715   12.54102087911574
H        -2.30450676420310   13.27373579080207   13.28949418258098
H        -3.96418210868630   13.59568798135958   12.83572129881139
H        -2.73523381208671   14.81836846190602   12.57769692675321
C        -3.74078261373765   13.92322537008009    9.54728353241872
H        -3.49898336037050   14.98036307665410    9.47071625934738
H        -4.78380297961415   13.84098741097342    9.83608237007599
H        -3.64176501489215   13.49286358372585    8.55551953863424
C        -3.12636798542041   11.19169977271437   10.83885651191293
H        -3.01121522595054   10.73083806484161    9.86201364857487
H        -4.16529954683843   11.07832805834597   11.13411169463845
H        -2.52289512389704   10.62393602684324   11.54098002088612

