29
CSD_code = HIJRUN | q = 0 | S = 0 | Stoichiometry = C12H10Cl2N2O2Zn | MND = 6
Zn        1.12008442940857    2.12633056517533    1.44284798336859
Cl        2.32953983961647    2.98275055575757    3.72493943934733
Cl        0.52682565970719    3.86143069509650    0.15866334035844
N         2.99613000621557    2.07218564111573    0.37874419750712
N        -0.43778221360297    2.07473522887094    2.82852639164227
O         0.67787058004266    0.75219648139633   -0.25510519329947
O         1.80269790293214    0.61634670670170    2.59565562553697
C         2.86040714812554    1.48645017668991   -0.81259234945180
C         3.85061897127685    1.55282008308036   -1.78835911152218
H         3.70235518100931    1.07711325295414   -2.74560472545146
C         5.01674346866869    2.24706308339642   -1.50311131186915
H         5.80370872030927    2.32335738852218   -2.23819336715758
C         5.14765582702407    2.84245961655384   -0.25934478528978
H         6.03883793987662    3.38911314985706    0.00521831197756
C         4.10394378142236    2.72891533486599    0.65387694944450
H         4.16204503451377    3.17945655546360    1.63499362607798
C         1.58451307553538    0.79328230663246   -1.04850261539446
H         1.49131059035818    0.30816857718698   -2.03589213974538
C         0.12898840041996    1.61121746814788    3.93808044306119
C        -0.53415824678176    1.60623134057099    5.15736944370229
H        -0.04153257230597    1.22520467497960    6.03808699400947
C        -1.82363225848270    2.10764612545879    5.20499251717680
H        -2.36711092473394    2.12731532420139    6.13790954239740
C        -2.40469401209573    2.59005419853852    4.04039301721562
H        -3.40467464720756    2.99324426503479    4.04267447592983
C        -1.66950774625434    2.55633585476480    2.86729975533218
H        -2.06154061914285    2.93221583390089    1.93260469906485
C         1.52333512964115    1.11545552352532    3.72239842637954
H         1.99862155450581    0.68630399156042    4.61403041965209

