29
CSD_code = HIJSEY | q = 0 | S = 0 | Stoichiometry = C12H10I2N2O2Zn | MND = 6
Zn        1.54795223184373    0.84719723381561    3.41321887217328
I         3.10990071344187    2.62013850799453    4.42008453778810
I         0.00086991369267    1.41799161246982    1.44205242156040
N         3.02972623390387   -0.30886469960745    2.20504495307324
N         0.05719016638644    0.88427124343335    5.07706547303341
O         0.71963548897277   -1.38630589232530    3.20276003182630
O         2.35676903294687   -0.59962958277729    5.13802736231832
C         2.65213748669814   -1.54005001212240    1.85079662143779
C         3.38787837144691   -2.31634068636959    0.95978800608137
H         3.04346778653515   -3.30322733981337    0.69152490796045
C         4.55611689696986   -1.79122274881351    0.43055680507354
H         5.15089030768246   -2.36546214939311   -0.26354780084077
C         4.94069289815629   -0.51512478477065    0.80867892485576
H         5.84131400562102   -0.06509982125396    0.42297762137212
C         4.14074663926428    0.19008928390868    1.70043028916066
H         4.40941907915803    1.18944827533133    2.01578605576176
C         1.39469484185629   -2.02416270952214    2.43345243978248
H         1.08117260889983   -3.02769915415839    2.09982822730921
C         0.42558241746379    0.25736714072337    6.19740113461576
C        -0.31667624958990    0.33629113016249    7.37241574990070
H         0.02054425763341   -0.17715226581740    8.25964857160539
C        -1.48209724949061    1.08631014882126    7.37184961764979
H        -2.08198989256849    1.16896100439659    8.26539365925039
C        -1.85758819008645    1.72761969487455    6.20264776012716
H        -2.75606004198956    2.32156065141415    6.15426535711201
C        -1.05127851320724    1.59787883580727    5.07761000399205
H        -1.31226759591666    2.08736197241464    4.14888392329715
C         1.67926459661222   -0.50367626065184    6.13107722896510
H         1.98699175766482   -0.98016862817070    7.07708124375578

