51
CSD_code = HIJTUP | q = 0 | S = 0 | Stoichiometry = C24H24N2Pt | MND = 4
Pt        1.49581877069697    3.86175057875343    0.65412889655123
N         0.10291690189667    5.68237069505702    0.54770343530490
N         0.93743540107647    2.71294698536405   -1.25341133722666
C         2.20060833150435    4.90773096938573    2.19514502058451
C         3.40820497998139    4.78460571236555    2.84949723030745
C         3.72107546276457    5.56559200127498    3.97241442037785
C         2.82092251790512    6.46141599816435    4.47918545177150
C         1.60210613765050    6.68643204790669    3.81110169858100
C         0.65569085350112    7.62961151915375    4.26192910513844
C        -0.48504211931716    7.86488960655088    3.55037689976719
C        -0.70857912091073    7.21955060540375    2.32434011808628
C         0.18535211593932    6.28762760903043    1.86420891944429
C         1.32851189875129    5.94888348020071    2.62929220153313
C         0.83434011183644    6.55037980239855   -0.38304718566810
C        -1.27494304019840    5.51559929414373    0.10222199532978
C         2.56359319148244    2.20541817714128    0.94047705629456
C         3.11908787589043    1.72006264506969    2.10559707068935
C         3.90800823470848    0.55981342620388    2.11851680709989
C         4.18113403362146   -0.11800249273544    0.96284704480234
C         3.58194065194877    0.28489490544700   -0.24592050238619
C         3.79191950488068   -0.40171676053276   -1.45961076897659
C         3.14228925780105   -0.01807381116552   -2.59701391359974
C         2.20455714592926    1.02569275764590   -2.56714778905499
C         1.98608811050363    1.72143313624786   -1.40631761023937
C         2.71969965216877    1.41265177747947   -0.23431314837671
C         0.67906770636877    3.43882795802920   -2.49077768531753
C        -0.27466180251090    2.00851277963653   -0.81796374183714
H         4.14096414968420    4.06677604952433    2.51087816256584
H         4.67807445120666    5.42797806170495    4.45667076657136
H         3.03623997998668    7.02067964201706    5.37863231682134
H         0.85335971581988    8.16810858570923    5.17778825543644
H        -1.21348027338422    8.58126766025364    3.90191731853465
H        -1.58921418694876    7.49125637229366    1.76231455806769
H         0.82411674990662    6.12335571744621   -1.38599451553381
H         1.87023090761722    6.64959668844517   -0.05241099550281
H         0.38329306973762    7.55188716571936   -0.42832974262908
H        -1.76988256474924    6.47449895510688   -0.09708467592656
H        -1.83853028294179    4.97757353551014    0.86432422385557
H        -1.30184483466568    4.94446618322172   -0.82568098963594
H         2.96307991186758    2.23776063388331    3.04076966746446
H         4.32810242192615    0.22177392122456    3.05582065939089
H         4.83715799230585   -0.97693857400246    0.96146646204806
H         4.47163434178916   -1.24177320110820   -1.47133330522745
H         3.31154981698825   -0.53913689203771   -3.52827513891649
H         1.66265954283218    1.24545272769525   -3.47447021308556
H         1.61425164336647    3.84959390307637   -2.87101179138164
H        -0.01673894962793    4.25725275365639   -2.30642372530896
H         0.22847467192475    2.80282137765229   -3.26323164432974
H        -0.59405104027358    1.26983991375340   -1.56687833846869
H        -1.08925787534186    2.71655113180608   -0.66476398287136
H        -0.07753212488794    1.48875628382350    0.12184697906830

