19
CSD_code = HIJTID | q = 0 | S = 0 | Stoichiometry = C7H7I2NOZn | MND = 4
Zn        0.07165223760690    5.36215974176154   13.31199764316698
I        -1.65834997887131    7.07114538681455   13.89666910747557
I         1.52620882588899    3.48963127875912   14.11175542065993
N         1.54159904085562    6.59398042724725   12.16608474891258
O        -0.32817915614823    4.86709621955073   11.21831350233282
C         1.43313711660199    6.39147513145137   10.84667539045985
C         2.24637830178236    7.03358078901716    9.92090437717273
H         2.12710588135463    6.84258777211822    8.86647764317076
C         3.20495342127502    7.91758570797504   10.39645702691539
H         3.85814265236502    8.43750078934720    9.71264193131092
C         3.30746668307336    8.11980981039423   11.75926537814562
H         4.04128472480824    8.80036458295579   12.16123318345486
C         2.45240287520472    7.43677095637088   12.63327740859162
C         0.39507350985228    5.44260495959103   10.43703111765504
H         0.29881325584296    5.27040082810350    9.35441976052819
C         2.52704972910735    7.62723155302724   14.10599483029110
H         1.58012432144211    8.01835373300636   14.48040029822172
H         3.32123182728148    8.31771664738758   14.37299169713549
H         2.70940473067668    6.67220368512192   14.60000953439811

