19
CSD_code = HIJTEZ | q = 0 | S = 0 | Stoichiometry = C7H7Br2NOZn | MND = 4
Zn        5.49254604511831    2.92283415773179   -0.15845417342247
Br        7.19233006816416    4.44431435566706    0.38038882943572
Br        4.80517329879413    0.72411503538377   -0.58128463821120
N         4.77683343653008    3.87529277991344   -2.02526243074330
O         3.63540428991030    3.96884547099156    0.44100683897152
C         3.64975248757405    4.57400664204426   -1.84139651718070
C         3.02558844631022    5.26931883640125   -2.86957414444085
H         2.11848392389531    5.82119501226387   -2.68238812188061
C         3.60526776870561    5.22880025578577   -4.13056292490005
H         3.15404025535050    5.75524279699421   -4.95754246599223
C         4.76772852509412    4.50401031146898   -4.30780128199909
H         5.24271355527058    4.45247635929511   -5.27469747269148
C         5.34099450602108    3.82667157261083   -3.22367522775358
C         3.11385989069809    4.55960074031427   -0.47757427903374
H         2.18561921460023    5.12890694638098   -0.31848384051733
C         6.58933215817533    3.03325207886994   -3.36367920621213
H         6.96801693610063    3.06920337230803   -4.38057543948826
H         6.40017356006592    1.99349777472021   -3.09221097981566
H         7.35304163362148    3.41991550085467   -2.68713252412437

