53
CSD_code = HIJVII | q = 0 | S = 0 | Stoichiometry = C24H22Cl2N2P2Pd | MND = 4
Pd        3.37176957310005   12.49393988156705    2.32929825727282
Cl        1.31162502370962   12.30681710829768    1.43919605947381
Cl        4.27020854435561   13.19699504431822    0.39642365190820
P         2.85247507243727   11.55719746845798    4.33225911553266
P         5.21132120632061   12.83024255258839    3.64022890511618
N         4.46239045788849   11.89168054868154    4.87111599254650
N         5.01946640573451   11.73271041444861    6.15986338602416
H         4.48522668866291   12.24296199762766    6.86186853578335
H         5.03977035836925   10.74772256836915    6.41542232586500
C         2.91727171807200    9.74486201573371    4.19574344964496
C         3.15143297966067    9.24830078786309    2.91339424055497
H         3.17357227891650    9.94039785717007    2.05894414444950
C         3.33696675427172    7.89097934531186    2.72291976721130
H         3.50881966001627    7.50334946786864    1.73023737603342
C         3.30133623673653    7.02965942234647    3.80894352324996
H         3.44471711296327    5.96970172239785    3.66112845620805
C         3.08320036416435    7.52265200866310    5.08588283012102
H         3.06175949747502    6.84837801987588    5.92961633878327
C         2.89264971210945    8.87875237610909    5.28482675087785
H         2.71651109284619    9.26350402119097    6.28094794972182
C         1.81531243655636   11.95179187599918    5.76163887757939
C         2.06811666531271   13.12965590153649    6.46351666087088
H         2.89447672829140   13.76548040729131    6.16645065306490
C         1.25091618624823   13.49379276107338    7.51720219419598
H         1.45402538885659   14.40139350342950    8.06624332889482
C         0.16521365891038   12.70152973051910    7.85766972152270
H        -0.47435517287161   12.98941703290456    8.67830897908189
C        -0.11338920900003   11.55303505495839    7.13331802637510
H        -0.97472295183173   10.95226318423761    7.38401895386648
C         0.70365265633596   11.17799871656154    6.08246789283305
H         0.48197748467138   10.29499703735520    5.49982207044503
C         6.96432272537089   12.42487820987220    3.78416611829166
C         7.35393014168147   11.11889995326560    4.06238017071387
H         6.60025619042493   10.36663346274198    4.24931421410193
C         8.69732631809396   10.79589935348241    4.09605812676005
H         9.00329797728497    9.78507566893360    4.32274085963608
C         9.65163551486460   11.76504840478625    3.82808131102101
H        10.70040985130693   11.50864680113992    3.85073708109409
C         9.26290530472559   13.05848771177567    3.51653242240414
H        10.00754796983978   13.80746786673873    3.29129907425195
C         7.92104484105307   13.39053434860632    3.48704382406634
H         7.60669132341696   14.39350700456768    3.23252240655359
C         5.03818499947292   14.52665343008188    4.28118403127376
C         5.73485380210396   14.97047466793862    5.40105560692766
H         6.48012496570051   14.33041713655985    5.85250276643191
C         5.45788596588329   16.21976256902949    5.92708657618814
H         5.99456519440486   16.56755175256074    6.79772227853295
C         4.49259226834983   17.02428403832453    5.34032214089356
H         4.28296295699817   17.99947237863013    5.75417245045834
C         3.79456123694378   16.58225613459143    4.22702834011630
H         3.04338959056130   17.21141176759644    3.77426834531559
C         4.05995198661585   15.33104434841507    3.69767980553241
H         3.51324426558944   14.97453315565950    2.81128363431904

