56
CSD_code = HIJVUR | q = 0 | S = 0 | Stoichiometry = C29H25HfN | MND = 12
Hf        1.17889162853608    3.40837704347776    1.84473482991775
N         3.06682751209013    3.29893749903812    4.45521444252414
C        -0.24671509222487    1.92840190848590    2.47500790154712
C        -1.32150414060871    1.35773055634545    1.82551303521724
C        -2.20976060962396    0.48170611453163    2.47599082015671
C        -2.04201755120354    0.17676363204732    3.79724389133632
C        -0.76021321364331    0.44450440777873    5.89152495716321
C         0.29537590823265    0.99262215198122    6.56923937399526
C         1.19884461539015    1.83409915577506    5.91215052495614
C         1.03929065928142    2.13973992372666    4.57559967161103
C        -0.06545516742047    1.59570364668847    3.85165344421167
C        -0.96562265742270    0.72676756470840    4.52470601073256
C         1.99501617586617    3.00124749897564    3.83672501943696
C         4.16502187660545    4.02634757218608    4.06333015449528
C         5.30632664873809    3.34858521169639    3.59398973428968
C         5.33733244688402    1.84869284743521    3.50360476876057
C         6.43292613506214    4.07655081124897    3.24953590296747
C         6.46890462195204    5.45247764160718    3.39216429890199
C         5.38160749150762    6.10190455742075    3.94664481370154
C         4.23511356981156    5.40960697611897    4.30365254466208
C         3.12291606410948    6.13473531964755    5.00682676778732
C         0.24654761340112    5.40552956355436    3.06697956873234
C         1.06595754885124    5.82105003066496    1.98529627361120
C         0.37964917169330    5.50400903273370    0.78955850220807
C        -0.82185117998123    4.85594948692754    1.13076472062577
C        -0.91032553399865    4.81416863639458    2.53618060103848
C         3.38866799451411    2.99510129089393    0.80985251612296
C         2.61801441532561    3.68460073940146   -0.15007048089831
C         1.56704054012925    2.83733680997413   -0.56143820967491
C         1.70652657127199    1.61149219736754    0.12229438269450
C         2.82718617675726    1.70690318888313    0.96854995993789
H        -1.50978329235828    1.58111639799852    0.77798438926467
H        -3.03531873856517    0.05705327526161    1.92178695630022
H        -2.72932278816210   -0.48644056096876    4.30332015488058
H        -1.45370869369054   -0.21485485121715    6.39453290342930
H         0.44249443577483    0.77243722249395    7.61667559634677
H         2.03904344738251    2.25216949175169    6.44658933316750
H         6.08763634371441    1.45957268941828    4.19220992961806
H         5.60880462446792    1.52140345146789    2.50086819114381
H         4.37421527344413    1.42080072475270    3.76992535747073
H         7.29696774429281    3.54992983315682    2.86912155478510
H         7.34937415538757    6.00770806349076    3.10605679123200
H         5.41966309331440    7.16861789611522    4.11803406926223
H         2.61220417846408    6.82715383553117    4.33898812146458
H         3.53182429872715    6.71766616503791    5.83163623598369
H         2.39907766926464    5.42988138169626    5.40864870228239
H         0.40916164335767    5.62511224587765    4.11105389411008
H         1.94127946914308    6.45404852556134    2.05630685380817
H         0.64851577921579    5.84349294992832   -0.20057123568499
H        -1.61345553079909    4.59316529948271    0.44412888544970
H        -1.76138587136775    4.47341198570208    3.10621152525245
H         4.33652885328399    3.33113648127997    1.20352678884865
H         2.89111816972784    4.62644100505043   -0.60507506908975
H         0.88742463919955    3.02601049249021   -1.38103094148325
H         1.13670291902507    0.71317940606832   -0.06458929794601
H         3.24431793788442    0.89624357483625    1.54693956733236

