129
CSD_code = HIJWUV | q = 0 | S = 0 | Stoichiometry = C52H70N3P3Pd | MND = 5
Pd       -0.33371809873698    4.32448927938485    7.16302691228798
C        -1.81942594135217    5.49818386889180    6.30763800117085
C         1.44683697105992    7.38663378360272    9.28258629175902
H         1.12100124560688    8.29542857436078    9.79414508927333
C        -0.95715225313155    6.18817995598530   10.40398439110668
H        -0.28128641200507    5.65336791630955   11.08488053914758
C        -2.18315719096143    5.31603654962262   10.15786931008683
H        -2.66485411357065    5.05219684853091   11.09915625749089
H        -1.89732263271083    4.39719068489739    9.63852517710890
H        -2.90070507623142    5.85067161257255    9.53620761989369
C        -1.36618649685812    7.50454943478497   11.05275733994407
H        -1.89440810160231    7.29507661728834   11.98289918959638
H        -2.03778518092056    8.06144625285398   10.40312188955579
H        -0.50680083357912    8.12615750869755   11.29294976981778
C         2.35170638456918    6.58840242540361   10.21579771909781
H         1.87226230171310    6.40549032547083   11.17500044251854
H         3.28121015278867    7.12640587248534   10.39829005548947
H         2.59528455317950    5.62782078922387    9.76199880999642
C         2.19591214272679    7.75441568528233    8.00795422118212
H         3.12195052302648    8.28112788365038    8.23493936843475
H         1.58359920311692    8.38933870694336    7.36922822655821
H         2.43927805223093    6.84313070755950    7.45881290610695
C         2.10205836146304    5.41103593502183    4.11117630453577
H         2.12786032592188    5.10754239151745    3.06085165575400
C         3.42778099139432    5.06570581518842    4.78017944602598
H         3.37744411565548    5.29785747000306    5.84399762301376
H         4.24541853016377    5.63535586535720    4.34066403316893
H         3.65158565417304    4.00485873352604    4.67626257729933
C         1.80009664896950    6.90322549252815    4.20469409784965
H         1.59349751914646    7.17808840365218    5.23890659815415
H         0.92445413908035    7.15824648267579    3.60982153584787
H         2.64461340378211    7.49256735207636    3.85061404906830
C         0.86793405569303    2.72382551513494    4.42984711147890
H         1.57098163732795    2.27473001985315    5.14703793764907
C         1.38747334181609    2.45926659875309    3.02163192225746
H         1.45147419677162    1.38234328614286    2.86531074266637
H         2.37972421324976    2.87668755085854    2.86765716651617
H         0.71079246244363    2.86069917091685    2.27210273175319
C        -0.50261077356644    2.07298041300680    4.62662865887221
H        -0.92430589349655    2.35010613623136    5.60415870407777
H        -0.42558697304960    0.98755027099747    4.58168889861673
H        -1.19420354129158    2.39925552433151    3.85061009012281
C        -4.80200376305834    2.24402406652907    7.69573368351380
C        -4.88621938607158    0.88867886832547    8.04931066852325
C        -6.12599806400634    0.27753306598307    8.15876311307816
H        -6.16979047053070   -0.76842909705471    8.43082311347461
C        -7.29162595279627    0.99057529568285    7.94451208187060
H        -8.25246571232959    0.50558309459447    8.03771746953785
C        -7.21699635726731    2.33629032395690    7.63117109089369
H        -8.12232141095159    2.91220500468785    7.49268617938503
C        -5.99386448960180    2.97369861877132    7.50366511150328
C        -5.97543089627514    4.42616617855287    7.21955084581194
C        -6.20086855673521    4.89466373801767    5.92487753458152
C        -6.21043241259879    6.26281090039108    5.69227650581450
H        -6.38719006149867    6.62734797575568    4.68835153154092
C        -5.99444436368080    7.17233519276268    6.71643794357571
C        -5.79882960732052    6.68840287732904    8.00291730804989
H        -5.64873468207442    7.38970003668169    8.81292965872340
C        -5.80906421433064    5.33055413104375    8.27270824700349
C        -5.66360800527849    4.81944033743250    9.67460572142659
H        -5.53038543882147    5.63996056620810   10.37568002996951
H        -4.80993460358570    4.14869423045007    9.75260344228708
H        -6.55063846890238    4.25350592526053    9.96072062006011
C        -6.40720296216043    3.92009542022448    4.80249674623986
H        -7.31645227647754    3.34097206898952    4.95971298717443
H        -5.57522704148037    3.21755323424181    4.75507708869917
H        -6.48688310837164    4.43646902331329    3.84839035111789
C        -6.00945823881365    8.64905826625108    6.45685450714732
H        -5.88490216803466    8.85947177206336    5.39707880274128
H        -5.21217550396717    9.14267692262111    7.00958325160405
H        -6.95924862973602    9.07747959319782    6.77994647779295
C        -3.68740893430722    0.07567163273776    8.35916341775752
C        -3.17145583171607   -0.80902805425316    7.41219663106021
C        -2.14334774767743   -1.66636611645101    7.77442540736283
H        -1.74848059191848   -2.35896557557183    7.04326161692797
C        -1.61379892328357   -1.65817801221217    9.05758919523881
C        -2.11314625722571   -0.74609621030900    9.97505022636028
H        -1.69987759549828   -0.71852219781131   10.97452307232106
C        -3.14340809750649    0.12085659811700    9.64279079764498
C        -3.67771945859343    1.10020245800411   10.64415508568657
H        -3.17552514539809    0.99401806221216   11.60340880583517
H        -4.74789851166947    0.95518846845514   10.78855213624420
H        -3.53138053977869    2.11589805568057   10.27765501582713
C        -3.72177159089914   -0.81443786067834    6.01735731595235
H        -4.77469922385613   -1.09370039220125    6.01998219823227
H        -3.17641365376959   -1.51281613619276    5.38665654431994
H        -3.64745888686997    0.18296431902251    5.58511989244282
C        -0.53194368624348   -2.62388157786970    9.44157135654493
H        -0.96899190072336   -3.58553032104900    9.71332152251126
H         0.03205042138269   -2.25791727878813   10.29692290479600
H         0.15182063089209   -2.79162453652759    8.61151564637343
P        -0.00146706803953    6.29688759075295    8.79006000621021
N        -2.45339269632914    4.66483711838613    7.14634758618580
C        -1.75099141860958    6.94826630274965    6.68192070455889
P         0.73708090310030    4.51075742586855    5.01421848527936
N        -3.46201725696344    3.93137533934942    7.03367171461569
C        -1.04026778227205    7.43714648315526    7.79315800667206
P         0.53285120479694    2.48839617911682    8.32686276510285
N        -3.54168985444856    2.80045946952750    7.61968751264562
C        -1.06884430952663    8.80207155628876    8.07065376364109
H        -0.52038381295285    9.18954903647245    8.91479055829054
C        -1.76446721782590    9.68944474477453    7.27349542931003
H        -1.76486531718945   10.74433070872916    7.50773893943838
C        -2.44522449808249    9.21408893191764    6.16689523783449
H        -2.98314067653510    9.89436052169380    5.52278204853599
C        -2.43709763745075    7.86314464990316    5.88240394734732
H        -2.98081870281974    7.51299112171967    5.01898536375565
C        -1.90385741282753    5.24686102140643    4.82786767674813
C        -0.74767697155505    5.02584716630826    4.07259296732957
C        -0.83020719637176    5.03579604649072    2.68345857086494
H         0.06470572109628    4.94173670894678    2.08648565730152
C        -2.05478603814901    5.16778207271121    2.05488890307968
H        -2.10918035149112    5.17048224491175    0.97549500618367
C        -3.13757486137895    5.31922631869784    4.18933206725211
H        -4.03132727173536    5.42385561113477    4.78550317987036
C        -3.21313550905187    5.26178814948710    2.80971354495938
H        -4.17495170410226    5.31502601938433    2.32061979332926
C         0.08488381984588    2.25878447115554   10.09193798011637
H         0.23661935710193    3.19457776813061   10.62783160810644
H         0.69386904618059    1.47440481104303   10.54065223094817
H        -0.96521669245880    1.98056775141364   10.14844548897430
C         2.36545609367084    2.56997621059907    8.48802539573583
H         2.75012494298401    1.69921694929837    9.01743845285411
H         2.63285398629845    3.47443248701409    9.03170325711521
H         2.81298977643346    2.62426974578039    7.49655116454852
C         0.35682907196595    0.75830415204345    7.74245007425544
H        -0.69998374310186    0.53300654065018    7.61594070036380
H         0.78703135542428    0.07241989074387    8.47069038503255
H         0.86160147995613    0.63570801302400    6.78679151086102

