65
CSD_code = HIJWEF | q = 0 | S = 0 | Stoichiometry = C24H30Cl4N4NiO2 | MND = 6
C         2.47720346248600   12.40280365782539    0.76110053788101
C         1.82120450988910   13.62985526832410    0.43394076992416
C         1.20823432943349   14.42440201344705    1.36629466996701
H         0.73486089629743   15.34714276692860    1.07011914874876
C         1.20238647535496   14.02920477741627    2.70620351869592
C         1.79457520543171   12.85188194617143    3.08757101224032
H         1.77868535080779   12.54804459970181    4.12329791591745
C         2.43088206082114   12.03707498858602    2.14131763353643
C         2.97270858771274   10.77901149298815    2.54225950141216
H         2.70839694992547   10.47748665874789    3.56164839088304
C         3.89922080102271    8.66245820627332    2.39439029817084
H         3.93500850327131    8.72241569942188    3.49095463681383
H         4.84644291971524    8.27071151653122    2.02579975547786
C         2.76457536989326    7.70853980192101    1.99383098407462
H         1.81023431045669    8.12712816094317    2.32104383719497
H         2.91395163929073    6.76596833856216    2.52449964017485
C         2.72657976948665    7.39134722709815    0.49904603078600
H         3.68082736947433    6.93507809663347    0.22608640812521
H         1.93107691215879    6.64299272957953    0.32670745746719
C         1.18513237026976    9.10300047102971   -0.20318349241622
H         1.04818974529611    9.92737291771337   -0.90029882937761
H         1.06138261615129    9.49521325917843    0.80330643939242
H         0.40617218839599    8.34692399486621   -0.38839372579757
C         2.64465093940714    8.09877536941082   -1.76534019267225
H         1.88157339061763    7.34412883664417   -2.01431347566894
H         3.62798493410724    7.66277061845684   -1.93398704064087
H         2.52193103960464    8.95172257035023   -2.43080244723122
N         3.67438077542664    9.97532365786597    1.82870522255405
N         2.52232290309062    8.54600817667866   -0.38087776446470
O         3.03463800884793   11.71054970265767   -0.14302717678384
Cl        1.82530722976534   14.12311738235299   -1.22424806465636
Cl        0.42870408298213   15.04173012401323    3.87805412917252
Ni        4.28813277332357   10.32568801480394    0.00030470120097
C         6.09939814691755    8.24865647799445   -0.75992872708342
C         6.75524827119303    7.02167178568247   -0.43226579260820
C         7.36817517162123    6.22673629431465   -1.36430701011279
H         7.84147560132793    5.30407332672737   -1.06776718017906
C         7.37409319563929    6.62144683387619   -2.70435794216184
C         6.78193125141282    7.79863491240812   -3.08619944903759
H         6.79786424679097    8.10206862368008   -4.12204229838645
C         6.14561781183128    8.61382376945500   -2.14027251147549
C         5.60350865550839    9.87164890016746   -2.54164983602324
H         5.86760745707538   10.17275650599656   -3.56121780996257
C         4.67599939772787   11.98786470301029   -2.39480809665589
H         4.63990802733207   11.92721040128244   -3.49134331360331
H         3.72871124739286   12.37942122368476   -2.02612218237095
C         5.81041112500204   12.94248463063233   -1.99520247235287
H         6.76484334340867   12.52404759441961   -2.32236936760317
H         5.66054761189235   13.88465236064698   -2.52644803753224
C         5.84853657808612   13.26059553262029   -0.50063128145002
H         4.89418248020165   13.71673693672070   -0.22784889230877
H         6.64382277090828   14.00930955931571   -0.32887284002202
C         7.39065120253986   11.54997841721027    0.20255808749215
H         7.52792010547180   10.72601602209638    0.90009444295224
H         7.51454251622970   11.15730657317245   -0.80373641602911
H         8.16931799649910   12.30645598257543    0.38737397977592
C         5.93084126848878   12.55459286897550    1.76416237915322
H         6.69371323376112   13.30961408292487    2.01263645715901
H         4.94740219165937   12.99044577021512    1.93257176010153
H         6.05380285546523   11.70210013455426    2.43016220586076
N         4.90164198485135   10.67546205719342   -1.82837540705695
N         6.05323955979166   12.10652783849197    0.37997513747801
O         5.54203975264034    8.94134526311794    0.14388844536384
Cl        6.75114091922611    6.52899997176095    1.22610447793116
Cl        8.14780560189005    5.60844160195364   -3.87577093935403

