67
CSD_code = HIJXED | q = 0 | S = 0 | Stoichiometry = C28H24Cl2O12Zn | MND = 6
Zn       -0.00021501240193    0.00019760080181   -0.00106335102459
O         0.51375828545047   -1.52108733930446    1.15276114787824
O         0.54207146166699    1.27830344615592    1.41279825593674
C         1.57607905643509   -3.61968249875387    1.25562141885398
C         1.41003146175103   -5.00616472890056    1.17705536880279
H         0.43744352520921   -5.41088557443417    0.93885082612074
C         2.48270610004622   -5.84324311452204    1.41043040048215
H         2.35717000070917   -6.91418550411602    1.35360593185525
C         3.72706590144281   -5.30732767610464    1.71456898714467
H         4.56453854732518   -5.96622932838794    1.89105667707015
C         3.90139224782505   -3.93253669617321    1.78824215656075
H         4.87311837379215   -3.52257669513573    2.01729347956587
C         2.83378766549089   -3.08552033669955    1.56370238039779
H         2.95374398813695   -2.01183105863915    1.60314998475591
C         0.45432852504236   -2.73116007392994    0.99636009770197
H        -0.48566651766831   -3.20119619496059    0.66582917600170
C         2.01002340959334    2.10783960350223    3.07069910220021
C         2.75635631853414    1.79392178523508    4.20811793975949
H         2.74626754975306    0.78301490993872    4.58595257820038
C         3.50847983099227    2.76990037405189    4.83202695154439
H         4.08851200905271    2.52799607571678    5.71015309494488
C         3.52594914059778    4.06188347530835    4.32670425207484
H         4.12016656081622    4.82107909177272    4.81387685496429
C         2.78989275680731    4.38027331919974    3.19483821297738
H         2.81467880295160    5.38595382481218    2.80280301483262
C         2.03372115319655    3.41058939179984    2.56700214423463
H         1.47009716938229    3.62541068689024    1.67368727388764
C         1.24892410054600    1.06727466964006    2.39030322399225
H         1.29432000220087    0.07331306769928    2.85581004479732
Cl        2.89734153159938    0.68560964750354   -0.17997747683486
O         1.83685833309721   -0.11634085548206   -0.75723629920869
O         3.09524806411855    0.25783998468233    1.16774505876459
O         4.06616824990461    0.47012991885709   -0.92897726053524
O         2.51614211838445    2.04505994792398   -0.20926356434123
O        -0.51401750572502    1.52187394048589   -1.15456719342415
C        -0.45548055513299    2.73177291343407   -0.99640022639173
C        -1.57866127943905    3.61965167152928   -1.25159761754240
C        -1.41394014410575    5.00615207567511   -1.17036025396686
H        -0.44135319986704    5.41139836681791   -0.93306365629246
C        -2.48797955389910    5.84260357851204   -1.39966754177660
H        -2.36350356775742    6.91355355273963   -1.34062353546731
C        -3.73241491599060    5.30604130238954   -1.70237282351805
H        -4.57090261660352    5.96444473686075   -1.87586145882162
C        -3.90539513927974    3.93123646588307   -1.77882979625246
H        -4.87708919290484    3.52074341999101   -2.00702144373044
C        -2.83642799608609    3.08486713347610   -1.55836622895199
H        -2.95536921831156    2.01115676523304   -1.60018006718862
H         0.48478571889408    3.20213887914425   -0.66707552156036
O        -0.54221641088894   -1.27771449188188   -1.41497274940634
C        -1.24825342757593   -1.06635833098520   -2.39298203797060
C        -2.00788944176451   -2.10693886291590   -3.07496349491168
C        -2.75255946205010   -1.79290130340297   -4.21343440879075
H        -2.74262589099060   -0.78174125113691   -4.59061313038668
C        -3.50262408642036   -2.76916413722919   -4.83937620282636
H        -4.08132844123053   -2.52719169298571   -5.71836660454741
C        -3.51969211926788   -4.06152334608195   -4.33501938750586
H        -4.11233041170390   -4.82094067992433   -4.82377021986345
C        -2.78541334878895   -4.37999848061582   -3.20201201054832
H        -2.80996676955990   -5.38597044762756   -2.81071960728084
C        -2.03130246256514   -3.41003364971836   -2.57214018763413
H        -1.46900848931889   -3.62488330178149   -1.67799370396987
H        -1.29427270763014   -0.07194732654984   -2.85744575140227
O        -1.83755374097804    0.11622760089284    0.75467666074601
Cl       -2.89762924471227   -0.68634227409007    0.17747355729601
O        -3.09582685345755   -0.25880405406588   -1.17025511556841
O        -4.06651883906589   -0.47142526859736    0.92654550148055
O        -2.51573939760186   -2.04560664941014    0.20682817363651

