67
CSD_code = HIJXIH | q = 0 | S = 0 | Stoichiometry = C28H20Cl2F4O12Zn | MND = 6
Zn       -0.00027764339094    0.00016054723471   -0.00004995447664
O         1.49526467936267   -1.27995873689492   -0.29033787861312
O         0.95389728391278    0.73433570870455    1.55393775476118
Cl        1.45003830175970    2.58725568857907   -0.60532842416006
O         0.81707354218239    1.40245421189811   -1.14143697150742
O         2.71666283508610    2.22374448242076   -0.08153952739724
O         1.56868357756999    3.51956148126772   -1.64742044546580
O         0.65064575297601    3.12315019069579    0.44116506302486
C         1.73209674995138   -3.34407698855089    0.88847833195972
C         1.89632337144947   -4.72352928528732    0.72646545359192
H         2.00521803515565   -5.13091681889176   -0.26660072644229
C         1.89616180447565   -5.56131213044382    1.82112185199196
H         2.01050343194503   -6.62878258544894    1.71837016469575
C         1.72684168018665   -5.00803889549965    3.08158624253166
C         1.56558767610950   -3.64508823693917    3.27427046626926
H         1.42455595724990   -3.25918211609854    4.27100894962758
C         1.56782047574437   -2.81492138370844    2.17320488389271
H         1.41160347347668   -1.75458496181925    2.29106346166542
C         1.64759705230204   -2.49272418753961   -0.29133540735498
H         1.79767036586818   -3.02061351572691   -1.24762757504145
C         2.66785176414744    1.87172294762025    2.71145921465726
C         4.03722891990211    1.93369859923021    2.98090042275218
H         4.70556087705536    1.23380073381453    2.50486146511986
C         4.53254086612262    2.89266847695021    3.84007445280733
H         5.58513257361186    2.96497576868860    4.06387326672151
C         3.64656834922363    3.78988431803995    4.41824753446734
C         2.28406025176970    3.75517886397679    4.16247739711536
H         1.63573006367398    4.48025346376334    4.62830165993666
C         1.79700452943482    2.79044528993903    3.30581987246586
H         0.74944273657848    2.73730974658768    3.05697908052660
C         2.15011348254280    0.88349570327086    1.77497112535824
H         2.90221564579716    0.22072516038117    1.32206890756402
F         1.72777677078917   -5.81984804555786    4.14886604709765
F         4.12669416086884    4.72504450149140    5.25272953699056
O        -1.49579405959192    1.28030601281741    0.29016320165538
C        -1.64786061545475    2.49310974177264    0.29106736470391
C        -1.73201100196566    3.34439947979096   -0.88880018632174
C        -1.89579598154355    4.72392297304843   -0.72688914169319
H        -2.00466571257942    5.13140384363271    0.26612650167284
C        -1.89511689135127    5.56163773839568   -1.82159246475317
H        -2.00908936592929    6.62915470908287   -1.71892505195909
C        -1.72571373726261    5.00823859158165   -3.08198892870960
C        -1.56489277453181    3.64522575541581   -3.27456523620226
H        -1.42372199630071    3.25927263892198   -4.27127821824618
C        -1.56766395730222    2.81511160991537   -2.17346840518025
H        -1.41176265676026    1.75471069636782   -2.29120097095835
F        -1.72614511192258    5.81996346885335   -4.14934794472307
H        -1.79819083167764    3.02104613564228    1.24729486773057
O        -0.95449691193879   -0.73411299593226   -1.55396285314933
C        -2.15069866787591   -0.88349914121813   -1.77493952125979
C        -2.66831835988909   -1.87197479897007   -2.71124057352814
C        -4.03769364261919   -1.93425485114776   -2.98060938660770
H        -4.70613911653318   -1.23443274133327   -2.50461737572653
C        -4.53285559500063   -2.89341783730645   -3.83965631335287
H        -5.58544399338740   -2.96596555131951   -4.06339933513199
C        -3.64672980243969   -3.79051762959454   -4.41777557692935
C        -2.28422247421943   -3.75553421505671   -4.16205107543192
H        -1.63577661755274   -4.48054206757935   -4.62781746943360
C        -1.79732304637031   -2.79061368797352   -3.30551427756602
H        -0.74975839385271   -2.73723434870510   -3.05672404227023
F        -4.12670900659555   -4.72585911332362   -5.25214192665652
H        -2.90289178964200   -0.22079438280726   -1.32208210245925
O        -0.81733508108516   -1.40219771010717    1.14151270830971
Cl       -1.45032295932773   -2.58702537136476    0.60548055521318
O        -2.71693485395437   -2.22355726278798    0.08164473717449
O        -1.56888551598350   -3.51925765506024    1.64765625473093
O        -0.65092887246423   -3.12300002977879   -0.44098351006704

