58
CSD_code = HIJXUW | q = 0 | S = 0 | Stoichiometry = C24H27Cl2IrN2OS | MND = 8
Ir        4.62675753248097   14.35154591629887   13.62924026414091
S         4.98377411506957   15.32281152701493   15.89516351921215
Cl        6.91638279649929   14.57486041843827   13.22050051944410
Cl        5.03931296388584   12.15988859915241   14.38266919156812
C         8.04823696276583   13.00323287288602   16.84139135606218
C         3.35579426437753   16.02821358783931   12.93091512407618
C         4.03452932759379   15.51581748605668   11.80039468141251
C         6.36606110225424   14.78405547228693   16.69621009514936
O         8.59984566543329   13.41619057796571   17.85374082139976
N         6.91287913242306   15.39616323702861   17.74519374125419
H         7.70802142909870   14.85468750377988   18.13087651090879
N         6.95080638935043   13.62173609136849   16.28614498503376
H         6.46886977607267   13.12150967724780   15.51846436050157
C         8.48581958952587   11.78484490605617   16.13638144663738
C         8.37986544898906   11.64835907490051   14.75311142953424
H         7.98889569090526   12.45001830471999   14.14622184392641
C         3.68622568727401   14.12214045665726   11.67559430203478
C         2.66635991623277   13.83060390720901   12.65679187384373
C         2.49666412718597   14.98150278103003   13.45757097102883
C         8.82528322450209   10.48737114385120   14.14850685343124
H         8.74540038200026   10.38333345444301   13.07727941496232
C         6.64679706557077   16.58779209600622   18.41580264705055
C         9.49085091513839    9.60399092146534   16.28013676068142
H         9.92326370181881    8.81017059289553   16.87097247270284
C         9.06144232863017   10.76435054354110   16.89290300407403
H         9.15207089378192   10.89477085950480   17.96096186178652
C         7.38822822952967   16.80426959365090   19.58010902677733
H         8.10503869987281   16.05998891510178   19.89594482177921
C         9.36801239992509    9.46263104171376   14.90668160331922
H         9.70412957615381    8.55504288065467   14.42683644016710
C         7.21023030808668   17.95491986865337   20.32052581450527
H         7.78767429365982   18.10671732278340   21.21996541261384
C         1.49735669453288   15.18571408388797   14.54679551188292
H         1.15366320538939   14.23549127130601   14.94696296782528
H         1.92943352013038   15.76223538910966   15.36273334846052
H         0.63599739028839   15.73376704213308   14.16090818186871
C         1.90528140666487   12.54969626447988   12.72532655962933
H         2.58188756252177   11.70005431838983   12.80554354002373
H         1.23735920765910   12.53413065719091   13.58200516734629
H         1.31494283437228   12.42632387564413   11.81651011027022
C         3.35067884802107   17.44225849910318   13.40801600307763
H         4.27265025734143   17.94927881091809   13.13490479024364
H         2.51062695502270   17.98058631748955   12.96522126474189
H         3.24706581542897   17.48082075462967   14.49044561236586
C         4.06724364347282   13.23900612375802   10.53321211252429
H         5.08036681254647   13.45593307654572   10.20278769235043
H         4.01163471217185   12.19146548087977   10.81948119635059
H         3.38679175553879   13.40374138638295    9.69502646450015
C         4.91747725086954   16.25681631591269   10.85367038975363
H         5.94442626771329   15.89815313559466   10.92378134929358
H         4.57398879428293   16.09992813581675    9.83145984349713
H         4.91268227467705   17.32172096479115   11.06873719754127
C         5.73460570164961   17.55404778434896   18.00303022773879
H         5.16456818519528   17.41256557835972   17.10197942122739
C         6.29607975904689   18.91230659169555   19.90969782609436
H         6.15483898513685   19.81239724535520   20.48822543367214
C         5.56900131081488   18.70658595322625   18.75053209724495
H         4.86052691391771   19.45114331044999   18.41960252019586

