57
CSD_code = HIJYAD | q = 0 | S = 0 | Stoichiometry = C24H25Cl3N2ORuS | MND = 9
Ru        9.68050576964600    7.59107731438412    6.18512813336873
Cl       10.48430254594106    6.72118790281302    4.15169425243952
Cl       10.59826351102865    9.69341351368601    5.63080086696216
S         7.62158983089143    8.11636294524379    5.01902671582980
Cl        1.25186040314091    6.84401383664180    2.22565481179467
O         8.53504041190344    9.80051978061148    0.91370581319803
N         8.99886650182441    9.23891226544029    3.07772065830419
H         9.71302916654585    9.30365121151686    3.82836078974737
N         6.82107322878417    8.73440402487550    2.54236815856081
H         7.15612653882063    9.10972598368053    1.63329597942117
C         7.79711863889126    8.72050119412459    3.45014174759885
C        10.73984823556206   10.16492174081365    1.70902909642218
C         5.50969945665177    8.27317829277915    2.54965366235339
C         9.34077728810174    9.72126323612110    1.83289926926835
C         8.86311974432939    5.81300613471009    7.35512901068418
H         8.16445961457632    5.03389063995860    7.07275106653893
C        10.68995641956089    7.76839809440259    8.20264881170963
H        11.38387062086665    8.51509045152171    8.57418952707074
C         9.30584795209400    7.96888448492627    8.39923825210246
H         8.95848573334959    8.85115584134259    8.92413887329914
C         8.37812950727669    7.00197423347822    7.96179731090497
C         3.47772432845418    7.51886404241018    3.59278806014772
H         2.91834591447611    7.27607878231388    4.48231167242481
C        10.23980903056693    5.62473589900656    7.16813138942216
H        10.59624302087524    4.69810493823087    6.72901115770487
C         4.78436523952492    7.95890578178765    3.69628272352101
H         5.23375068632400    8.06674221323067    4.66779194235469
C         4.89005119605183    8.16027053278089    1.30157780360456
H         5.44331930050684    8.41622358065931    0.41015227880527
C        11.01588031007312   11.20883328738097    0.82547155493565
H        10.20065682840247   11.65750367003398    0.27777033806022
C        11.18632288037404    6.59383040385025    7.59670122749714
C         6.91187458301882    7.17030727421830    8.21785493985612
H         6.32762612356139    6.73908098464040    7.40694404291606
H         6.64315862177312    6.65908331615878    9.14390909056441
H         6.65180305147642    8.22204525002585    8.31496796074573
C        12.30999008648396   11.66505265350015    0.67285924030077
H        12.51764452749120   12.48261826224399   -0.00136921105739
C         3.58712235603702    7.72147970093001    1.19672490751744
H         3.11633754331665    7.63128521708728    0.23073727659500
C         2.88310871837637    7.39569032551297    2.34761179112462
C        11.78030794839821    9.55555061397760    2.40935880821706
H        11.59188826860520    8.70758895524347    3.04949753511898
C        12.66905928157113    6.35162191681799    7.43778966694737
H        12.80216862305139    5.37367689414458    6.96079788811391
C        13.07413583433057   10.01217889237120    2.23877991973243
H        13.87952210110859    9.53831375661479    2.77882756581457
C        13.34023745144896   11.07001584329063    1.38433049925053
H        14.35287352396106   11.42662944294388    1.26484177511771
C        13.29226783537169    7.41075623687252    6.52452726158075
H        14.33877571329853    7.17946172430541    6.34182016110651
H        12.76839363043284    7.43143758678730    5.56873156114082
H        13.23024317601121    8.40082620378393    6.97092038999065
C        13.35953631036171    6.32029267800834    8.80434902526334
H        12.89818086541488    5.57729797907849    9.45266083772853
H        14.40883650508571    6.06500365418160    8.67960783362991
H        13.30166746457110    7.29007838249959    9.29335627658087

