60
CSD_code = HIJYOR | q = 0 | S = 0 | Stoichiometry = C24H26Cl2N3O3RhS | MND = 8
Rh        6.78494087487292   -0.44753933109342   10.61102943106626
S         5.38419974898111   -1.78393442878910   12.08549894654060
Cl        4.88661054677039    0.71775368885364    9.96843181645063
Cl        6.44545712826725   -1.90125923615820    8.83817015113545
O         1.52547748432470   -2.85450322110549    9.98511076214789
N         3.70309885727989   -2.17780559755000   10.11124808409109
H         4.55955110710288   -1.98837427615586    9.55022459346709
C         2.54742942008084   -2.47826070600172    9.42371211598894
C         3.86794745546755   -2.14052061892957   11.46108605219317
N         2.79314249879423   -2.44293229950336   12.20524563109135
H         1.98352598993517   -2.69619790479548   11.60294018899765
C         2.53473497691706   -2.43017739892851   13.56051184608920
C         1.23707703635744   -2.81150133279072   13.93604418998559
H         0.52736966440959   -3.08867990779999   13.17095226915177
C         0.86548001129163   -2.83159510396554   15.25897932529590
H        -0.12835022866241   -3.12498985697376   15.55976367897772
C         2.65102780893589   -2.34434849755026    7.96125465671442
C         1.79027351928308   -2.46381698353081   16.23351193596353
C         3.07732169217712   -2.07789191016473   15.87603889112822
H         3.77253271396067   -1.79377502426708   16.65096609387921
C         3.43699627148540   -1.36134169855017    7.36129270729360
H         3.97865625276164   -0.64670434260125    7.96096655717753
C         3.45166774741090   -2.06410876351985   14.55011592588717
H         4.44856165034216   -1.76588980547300   14.27859928571602
C         3.48115299141979   -1.27435376324914    5.98215818854750
H         4.08648819751816   -0.51123271168095    5.51747422758566
C         8.02068229506098    0.26511225223846   12.28179383470104
C         8.96506197425559   -0.30960594730691   10.24014380216479
C         8.73258189090391   -0.77377702122985   11.56364534963499
C         7.79961522999754    1.34780417410945   11.39373575287775
C         8.32710430593422    0.97288727735071   10.10188040364177
C         7.72359186166491    0.23416321612951   13.74461186715598
H         6.89621998169741    0.89449371688028   13.99206770884937
H         7.46787065635232   -0.77285446504340   14.06755464881844
H         8.60628326650780    0.55750225236744   14.29875587773891
C         9.30751972831211   -2.00453792346441   12.18529442156790
H         9.46848808480274   -2.78043185138349   11.44085587661545
H        10.26733669942651   -1.76475738597679   12.64652586475269
H         8.64690987090685   -2.39807084516440   12.95458327602685
N         1.41162386000689   -2.48198918869150   17.61683766838486
C         1.89617456045402   -3.21025386185583    7.16979993329963
H         1.27837846903421   -3.95280943094273    7.65219792116514
C         2.75683128180633   -2.15801948618557    5.19837891478755
H         2.80512563836894   -2.08948223587397    4.12154691228654
C         1.95900345877707   -3.12306716163217    5.79343498490748
H         1.38525698812975   -3.80428119170367    5.18302679534296
O         2.24848157298367   -2.15977874168826   18.43610160629537
O         0.27686706846331   -2.81821849482089   17.88814522766500
C         9.79430681365944   -0.98092857416048    9.19717186247385
H         9.81601014027853   -2.05820254164117    9.34304971522632
H         9.41227964702127   -0.77714082649613    8.19912350900803
H        10.81639200339007   -0.60242438860981    9.25678555198416
C         8.42633011867557    1.88898613209135    8.92611637185198
H         7.53863971574921    2.51344796567920    8.85055474484371
H         9.29605269317030    2.53852466811004    9.04431057652549
H         8.53690124832952    1.32987724313386    7.99992414865559
C         7.22904123871150    2.68903377744583   11.71582661001026
H         6.88634943155825    2.73303338209294   12.74578486723725
H         7.99364871948254    3.45189101051155   11.56492431357889
H         6.38776806868003    2.91945552804053   11.06308152718927

