57
CSD_code = HIJYUX | q = 0 | S = 0 | Stoichiometry = C24H25N5ORuS | MND = 9
Ru        1.08893652272828    7.17513806969446   12.96482857267740
S        -0.64727595004213    6.62404055823273   14.61303626843467
N        -0.60172870415910    6.20126095731403   12.12867888377951
C        -1.38277725422379    5.97839859781990   13.21263119433351
C         0.02343739031579    6.20686039345441    9.82101801837952
C        -1.00536684838562    5.93000543907390   10.85838534256076
C         1.31953904531982    5.71659029161068    9.95178709274573
H         1.58900388883784    5.11972832329502   10.81260728201399
O        -2.12944931264376    5.53143420732550   10.55650867709605
N        -2.56114505868425    5.37347914206081   13.11351164816526
H        -2.80314040187531    5.17568839114231   12.12577824958819
C         0.99311790053046    9.36585883623195   13.41567803361534
H         0.28289331125967    9.93780091447064   14.00111727466647
C         0.82460589619787    9.23770984038403   12.02640400580576
C         1.84468273397718    8.57355205989989   11.28637186409345
H         1.77919210972955    8.55398633276050   10.20341591650843
C         2.96793675940910    8.03036550081337   11.91911240785499
H         3.75846635072104    7.57900661100641   11.33006236282356
C        -0.31118299844648    9.91251305655641   11.29220220453923
H        -0.34101941367017    9.50628316487171   10.27359813583324
C         2.12424621436362    8.80619577188751   14.06575463516272
H         2.25305053789958    8.96092482559407   15.13280181445102
C         3.11363288761038    8.11956410740499   13.33722388670016
C        -3.49581993156317    4.97675641660894   14.06733408880293
C        -0.33701103586563    6.92501921572729    8.68541804184463
H        -1.35327226887244    7.27723362488444    8.58635084781363
C        -4.70456995162391    4.47781407639295   13.57921885810984
H        -4.86185958045707    4.42270084405096   12.51162470589230
C         1.89499673960009    6.70254443467157    7.83767440699901
H         2.62517100282995    6.89788130299200    7.06578326167944
C         0.60239573076425    7.18443906337181    7.70400813846366
H         0.32478423914671    7.75443003791031    6.82941160649097
C         4.34430267081183    7.57239947495483   13.99667656462660
H         4.44795639560828    6.51254498487250   13.76686444020710
H         5.23028912619338    8.09005771671354   13.62764317935044
H         4.29231037813525    7.68734540334907   15.07656064353349
C         2.24710089121370    5.95937182262784    8.95313863411661
H         3.24799282839768    5.56436200180622    9.04489422752499
C        -5.68699787845256    4.05667663673474   14.45230879060079
H        -6.61875186038789    3.67306490124645   14.06445461498081
C        -0.02858788309554   11.41648408491403   11.20414319946963
H         0.92531652442401   11.59866118842070   10.71302249212385
H        -0.81115782637359   11.91109752625956   10.63406507890373
H         0.00555802667502   11.85804409116219   12.19795740656782
C        -1.66938318125714    9.65291498548189   11.94465187392116
H        -2.46303906468064   10.06258872553925   11.32430490857971
H        -1.84075594647327    8.58346068513533   12.05479180876937
H        -1.73419829944482   10.11576243946756   12.92638102896026
C        -3.28325435440702    5.03709748022970   15.44091768378232
H        -2.34966148387858    5.40421173005623   15.83170389246959
C        -5.47674321875772    4.12285814503830   15.82073839158654
H        -6.24454720750422    3.79260346354772   16.50368522661154
C        -4.27483342251469    4.60910606406552   16.30537041980657
H        -4.10089231507054    4.65562895268625   17.36971326799445
N         1.24096210843033    4.29508801672800   13.46125482753535
N         1.80464518147202    5.29871744706282   13.23254805468436
N         0.82339926021738    3.25764762238457   13.66257161537373

