58
CSD_code = HIJYEH | q = 0 | S = 0 | Stoichiometry = C24H26Cl3N2ORhS | MND = 8
Rh        7.18836235694826   13.19674438644388    8.02338463796506
S         5.86835128663536   11.62612508131035    9.34665516294234
Cl        8.19357272497551   11.48022775882839    6.82617131916407
Cl        8.87386706491558   13.03526161670254    9.59822506882809
N         7.94670759301417   10.02691090470096    9.48466841604085
H         8.20724460047157   10.54717375488410    8.62355281254557
N         6.34839825132025    9.66137893901198   11.09532974782561
H         7.04222517204944    8.93095949988474   11.34448126933609
C         6.75069916654139   10.37346781829607   10.04010768955835
C         7.64706154365501   15.01830110088567    6.96278106076814
C         7.70026291084111   16.29865467351018    9.22324552715438
H         8.61605064263042   15.85368437190103    9.61219153071026
H         7.95915698898794   17.24419574809307    8.74594914049891
H         7.03348224758681   16.49499583668018   10.05824073470311
C         7.05478755386049   15.39958979294792    8.22126735931661
C         6.78532695757961   13.92984773482749    4.76123542918010
H         6.06410147408464   13.16365915743625    4.48856421149074
H         6.61831932868760   14.80654297230051    4.13279441486366
H         7.78370151864856   13.54901153219866    4.55502361581975
C         6.64470537855751   14.32200928543930    6.19439047887520
C         5.75522790436011   14.83524189897387    8.27642828724311
C         5.49770822792183   14.16685439220909    7.01406004239404
C         4.17594137007784   13.60104445518839    6.60841577969808
H         4.28255583650191   12.91760966866371    5.76989425843607
H         3.71447894303280   13.06208217616621    7.43352853795645
H         3.50852501688675   14.41255030586374    6.31253608517870
C         8.95758881516282   15.51784184262869    6.44663484202047
H         9.67470230490294   15.62212710613715    7.25796523156469
H         9.36993673697927   14.83825800633253    5.70407687941749
H         8.81707423874629   16.49489240659960    5.97931402518914
C         5.25581672584139    9.74179604132948   11.94907442808994
C         4.73991723899914   15.03373202159668    9.35394004028812
H         4.09339625550398   14.16304851280430    9.43970247365751
H         5.21749766273368   15.20065808260075   10.31627605119379
H         4.12019604929650   15.90001375189016    9.11510705626241
C         5.28075776380185    8.88238388028869   13.05226366364417
H         6.12291948820544    8.22000612194672   13.18857275392060
C         4.24941590475428    8.87354309723054   13.96687022326411
H         4.27708145901433    8.20928422254465   14.81586710576546
C        10.70455869323009   10.07893591797928    8.63513540287445
H        10.29617590714031   11.06550697573916    8.78839881535447
C        10.07011388392587    8.95519272332100    9.16198325693459
C         4.16283443784740   10.58830586744403   11.77888407273916
H         4.11612022037161   11.24984998751391   10.93209060577244
C         3.12912462887402   10.58280301758675   12.69697537063591
H         2.28594554621577   11.24153310143094   12.56232413322942
C         3.17207690013189    9.72956648866135   13.78710447430248
C         8.80837983732183    9.04652804980211    9.91899282324605
O         8.53816696269184    8.28934392090266   10.84367651577561
C        10.65451801266027    7.69696927692712    9.01848069721849
H        10.15962498782197    6.83984872214408    9.45021133891628
C        12.45706128420441    8.67328539250949    7.78079003185199
H        13.38302033218389    8.56411040757993    7.23527326540223
C        11.89605027991810    9.92876244787569    7.94980074269814
H        12.38842308380699   10.79941398878825    7.54427517268393
C        11.83793253690883    7.55695201571620    8.32109839305133
H        12.28014942267819    6.57922537123016    8.20005316919863
Cl        1.87570033725518    9.72585636959864   14.92796432534571

