38
CSD_code = HIKBIO | q = 0 | S = 0 | Stoichiometry = C13H21Cl3Zr | MND = 8
C         0.07335841794068    4.07270145595735    8.61191761973075
H         0.52726743586753    4.83711697705832    9.23196094619511
C        -1.31717265591811    3.95756413505049    8.32883719136339
C        -1.46494431274144    2.94223525580388    7.35021165512944
H        -2.38064765656205    2.66388292775713    6.84464429947070
C        -0.17911144565453    2.43561544738260    7.03303624352003
H         0.02591226112418    1.71602551606511    6.25084042921018
C         0.78051599033326    3.13136111065631    7.81132374250518
C        -2.40424256170369    4.75251969514755    9.02368761782363
C        -3.78962366143843    4.30856231999359    8.54479504756397
H        -3.90898367043310    4.49809689624083    7.48054119137631
H        -4.55974419488734    4.86416175773912    9.07487054363527
H        -3.93630068536012    3.24619335169421    8.73969865037339
C        -2.21234916098283    6.24908307868012    8.73974179140778
H        -1.25651684904912    6.59740126261013    9.12236923586705
H        -3.00264503304472    6.82698343461913    9.21254711800375
H        -2.24103441562740    6.43547633242447    7.66891660162901
C        -2.30031861040837    4.48957624857747   10.53901410870174
H        -2.47819077830444    3.42723475888068   10.75473819957206
H        -3.05371717238479    5.07282880249469   11.06682788651917
H        -1.31976080639241    4.77438057313726   10.92748013009823
C         2.27868682087686    2.91046740504335    7.86625751761616
C         2.66185334579746    2.56320345579422    9.31826833739854
H         2.37673541039497    3.36035093419329   10.00842787584775
H         3.73955482771056    2.42402636138920    9.39211840330625
H         2.17448169452879    1.62847985788678    9.62764355216125
C         2.68796247351673    1.74456317485016    6.96123937106267
H         2.17279746056753    0.83192565944759    7.26105519117501
H         3.75942291983538    1.57505414048839    7.03871769807993
H         2.45551375877705    1.96285720497707    5.92149270235912
C         3.00559055462802    4.18877750301665    7.42489548957685
H         2.70900286457535    4.45984526806641    6.41452266786629
H         4.08181176172770    4.03507359939682    7.43971262792886
H         2.76771986920103    5.01849181968477    8.08544091909615
Cl        0.07171923708544    2.22506172812552   11.57014370665637
Cl        0.33865558710331   -0.16499436044076    9.02567270050986
Cl       -2.67250925628935    1.01103281896857    9.75208977724971
Zr       -0.58104976441065    1.92258209114223    9.38840121241335

