116
CSD_code = HIKCOW | q = 1 | S = 0 | Stoichiometry = C54H53N2O2P4Ru(1+) | MND = 6
Ru        6.84566730451214   10.69597738844214   12.08413417495505
C         6.35680056760338    9.80562434458544    8.60948174497542
P         7.27690348573231   10.88523070789181    9.76263861363766
N         8.26752480237915    8.55844192495902   11.88033048027422
O         6.99582084020567    8.62726329160618   11.70316504067053
P         7.22118428033872   13.00840349854008   12.38693063249659
C         5.45089842882859    8.86689884115116    9.08499569250981
H         5.29597770873254    8.77123728130229   10.14939030611287
N         8.70575607783760    9.70529239191480   12.16995799372413
O        10.06302265178829    9.75688790029292   12.36551958194811
H        10.41395156295905    8.85784123348706   12.22137400818353
C         4.76491949646082    8.04392738248999    8.20819762049809
H         4.06135664078473    7.32173750047049    8.59499107977909
P         4.53677041359091   11.05500277383433   12.04108617389045
C         4.98569048283696    8.15006540579900    6.84633489490766
H         4.45233174020431    7.51169312939044    6.15874117498699
P         6.70536236174796   10.02916896585985   14.34472819533260
C        10.45736667316213    8.55586417401590    8.75937986321404
H        10.64211445912045    7.49339685709187    8.70651370208471
C         9.21186464821682    9.01527199314365    9.14255976629444
H         8.42882584627894    8.30597562946464    9.37880601895794
C         8.95395200610995   10.38466214911601    9.21848245801953
C         6.59448915941883    9.89034757390866    7.23890586442676
H         7.32691320161161   10.58375624200486    6.85144956434954
C         5.90646140237944    9.06925115767655    6.36617453355678
H         6.09345986133036    9.14194587057166    5.30535658385298
C        11.46119656608387    9.45538198672706    8.43745048730153
H        12.43392921538439    9.09684600967924    8.13776703134397
C        11.20728683827777   10.81467680848075    8.49216860469535
H        11.98009222914241   11.52122197273577    8.22852391549614
C         9.96318970405381   11.28058803846216    8.88175589718726
H         9.78980667159041   12.34513686001392    8.91001438857425
C         7.02100405192510   12.51634428299439    8.93227896322701
H         7.50897590769135   12.46128584581419    7.95507252248562
H         5.94168022549444   12.60204618001772    8.76532578588001
C         7.51435954996409   13.75844705300159    9.66977275806713
H         8.57665352515277   13.67824295099534    9.91182353991968
H         7.40061940342770   14.60940584399816    8.99084234979725
C         9.93799882238527   12.82290203707612   11.89150848059606
H         9.66742041387593   11.89608478616117   11.40442626617611
C         8.95263347228169   13.57623617969870   12.52050881992272
C         6.73656358547845   14.06276583418923   10.94477896039749
H         5.66530947599692   13.94616445262744   10.75987780670631
H         6.94246746557913   15.09603119647895   11.24588124549631
C        11.25579553113024   13.24091966320591   11.89727531970636
H        12.00915296035956   12.64152350399339   11.40874292975635
C        11.59932689474929   14.42173317043426   12.53396250076110
H        12.62725268336612   14.75050340065703   12.54777072793894
C         9.30047652930317   14.77028766697323   13.14478114949116
H         8.54618906233036   15.37459674661645   13.62720149951392
C        10.62054779623055   15.18334469816277   13.15293088418843
H        10.88625259827358   16.10720764498119   13.64429306044798
C         6.45961426500572   13.95404273149971   13.75746821235498
C         6.92767794720512   13.70429267551563   15.04683956441896
H         7.72836044015566   12.99296456782631   15.18981187738179
C         6.40038670246341   14.37536166294740   16.13473270188862
H         6.78219250038010   14.17345486709870   17.12450519556487
C         5.39034345490427   15.30643412306739   15.95252555899497
H         4.97543436087765   15.83069602772801   16.79936193930911
C         4.92525925326025   15.56913883072153   14.67526591522446
H         4.14817588575077   16.30370586524496   14.52466098201271
C         5.45511096202111   14.90241222106683   13.58262767690732
H         5.08352396941390   15.13645203380366   12.59774017668270
C         3.74995169273583   12.17984238628508   10.83420316661737
C         3.24879786670930   13.43506441267749   11.16769289615353
H         3.29257837416915   13.78861324683207   12.18606820729664
C         2.67573673036209   14.23842121819311   10.19566780528644
H         2.28658305389090   15.20855920529304   10.46695931433484
C         2.59263019770845   13.80182587191860    8.88414099048370
H         2.14341967243206   14.43099919940331    8.13144064845959
C         3.07789990452549   12.54847819526748    8.54627533719589
H         3.00546413329471   12.19272471016615    7.52934246267836
C         3.65312606723725   11.74505140054918    9.51362131793650
H         4.01443425350073   10.76034238029900    9.25331651077303
C         3.46860687059963    9.58510699017164   11.84862912617392
C         2.12628202825058    9.72735250937436   11.50447970075475
H         1.72160593205686   10.70520747881199   11.28499119089142
C         1.30884286317824    8.61480441315048   11.43370604830336
H         0.27101241998985    8.73145182255855   11.16017252668572
C         1.81495978682405    7.35492242109684   11.71386535453924
H         1.17173059985909    6.49014787100208   11.65526991925097
C         3.14513426748691    7.20947514845795   12.06861318542091
H         3.54781227819701    6.23271919752549   12.29186907918767
C         3.96863443601235    8.31980001812997   12.13669946397285
H         5.00992632505983    8.19855448606214   12.40189540665938
C         3.81113566682587   11.67962784498759   13.62397373183892
H         4.29395530593283   12.62120167162704   13.89808644000213
H         2.75082710962040   11.86461163022075   13.42055082171570
C         3.92601438518339   10.68483411671259   14.77391842721766
H         3.61833815150904    9.69789481629620   14.42048659909967
H         3.22151674767616   10.98252531672587   15.55685344341470
C         5.31582366579902   10.63613857501572   15.40286213370883
H         5.28973159299747   10.00042307844264   16.29326180145646
H         5.59945641876504   11.64640586471211   15.71693203685871
C         6.70079008881455    8.22153940352572   14.63334008388757
C         7.92608327436170    7.55609377395544   14.59724838371030
H         8.84020842120111    8.11607336957699   14.44688178319002
C         7.98869404129316    6.18857620970830   14.78209695010551
H         8.94416126122298    5.68693528820406   14.75058845996450
C         6.83018475692287    5.46498058387355   15.01273255956188
H         6.87874798137767    4.39643723641687   15.15560193791695
C         5.61237251313978    6.11996662284720   15.06859989979858
H         4.70645275654871    5.56503213896052   15.26254977013583
C         5.54406433756957    7.48898346699486   14.87747110458165
H         4.58293354997673    7.97676178539021   14.92744880261032
C         8.11207722123645   10.43173618326483   15.43954019058649
C         9.19009268556473   11.17220949014773   14.97230534670865
H         9.19877785735727   11.51817686358661   13.94787197285220
C        10.25717622003803   11.46391975104041   15.80479615241584
H        11.08658174123123   12.04090596057929   15.42414163725840
C        10.25392418989029   11.01353839403471   17.11317571260957
H        11.08350760356725   11.23777042328050   17.76599160726446
C         9.18602987185812   10.26345847594512   17.58347362289141
H         9.18679128425002    9.90193738203550   18.60065426313790
C         8.12126170337224    9.96843288832534   16.75399241744791
H         7.30557081562774    9.36346078064050   17.12365078753853

