109
CSD_code = HIKCEM | q = 0 | S = 0 | Stoichiometry = C52H48N2O2P4Ru | MND = 6
Ru        6.46988377867054    6.93540712069810   16.85738522856906
C         6.65692924593892    4.06488374462254   19.12026974377731
P         6.06183481494480    5.76806887339401   18.81768209196331
O         3.67947839732624    8.06702653927532   16.80618281798820
N         4.88678282169537    8.10830525821430   16.47411745668008
N         5.37045389404541    8.91525439509362   15.65438607811930
C         6.02234126776528    3.06898004699433   18.38117362565739
H         5.24878071587075    3.35664999906582   17.68348333872789
P         7.12638627853090    8.66095405606599   18.20987447222105
O         6.67366084144866    8.59025247643394   15.53435744556759
P         8.39927197527926    5.64706219374679   16.46034801761206
C         7.32103163484550    1.38244465980546   19.47572020911940
H         7.57903446932745    0.34341163827913   19.61931121672412
P         5.53226739777015    5.66357700382058   15.18282364222152
C         6.35288379199511    1.73878824419243   18.55036592876101
H         5.84876810825352    0.98057439320263   17.96813813293529
C         3.09160098669476    4.71943210719713   21.45392677874939
H         2.94919838302141    3.99240634495304   22.24099758651761
C         4.27537601742763    4.73099186519464   20.74079168931019
H         5.04816787051669    4.01352043239656   20.97805170725872
C         4.46742000720387    5.65767447357256   19.71823369577905
C         7.62838059345308    3.69897546759384   20.04470176165069
H         8.14104791220569    4.44181712780864   20.63576498834883
C         7.95094924792008    2.36399127923458   20.22071907622236
H         8.70062429722403    2.09110253764871   20.94938533988162
C         2.28028786478846    6.56187063516048   20.15620530578694
H         1.50539657423093    7.27674604721336   19.92103893944329
C         2.09109036620146    5.63398933920374   21.16494421019075
H         1.16704479497563    5.61832414310549   21.72478155982276
C         3.46242415286622    6.57538350317603   19.43558605608696
H         3.58357170648780    7.28229025087941   18.62460351656017
C         9.25063424729107    7.31408278727242   14.41931257902344
H         8.25372203168775    7.72673650342024   14.50377403193804
C         7.00696986711807    6.71695832465082   20.10986732207932
H         6.73688430554163    6.35215046959966   21.10704675261078
H         8.07486459912182    6.54696385114490   19.92778275944153
C         6.68198229304428    8.19352570582926   19.94302729100758
H         7.18902055566501    8.82566672938733   20.67726104894935
H         5.60226302683167    8.34675310636960   20.05379195865654
C         6.40415209909044   10.33320678910293   18.11189678318163
C         5.04338617364445   10.48774874493472   18.37031377967389
H         4.42977969950244    9.63090176279539   18.61276336045851
C         5.21448622614482   12.83978371929510   17.93745168072603
H         4.75233941962029   13.81346969442629   17.86444262191157
C         4.45486216228966   11.73437133966929   18.28310209687252
H         3.39727426007523   11.83991496690712   18.47463206579827
C         7.16045238385950   11.44498299880574   17.75691941714862
H         8.21356981471298   11.33993610559585   17.53990212126236
C         8.90850053465862    9.02344293428164   18.25697961966818
C         9.70280423170635    9.05190318396106   19.39772023636604
H         9.27583616352685    8.89301071664844   20.37699959318823
C        11.06510180648031    9.27651938255670   19.28416148338662
H        11.67778696345401    9.29623406288236   20.17445130384750
C        11.64499332228214    9.46945061411657   18.04161622481934
H        12.70955217057038    9.63461825655340   17.96281354187110
C        10.85682829146746    9.45212759704781   16.90127078931715
H        11.30260277870347    9.60350284287533   15.92890212414164
C         9.49755314315947    9.23341481449138   17.01010637293867
H         8.86222918008183    9.22242868877780   16.13483585380961
C         4.70481846635421    6.47133409048175   13.77329058244018
C         5.45484330491324    7.31971105890815   12.96075949028433
H         6.50666369994592    7.46975951887000   13.15898248886130
C         4.85362397217913    7.99993356515095   11.92014974777823
H         5.44226037326623    8.66040861763031   11.30019194121720
C         3.49778033050540    7.84676105758370   11.68115218527308
H         3.02689627538805    8.38387366582670   10.87077403488924
C         2.74563631084592    7.01473306082606   12.49195706507851
H         1.68561204739687    6.90099027125748   12.31672652088022
C         3.34082644691894    6.33196642051227   13.53741971540386
H         2.74121038850323    5.69613866522707   14.17220032031421
C         4.30720777650262    4.40086311909251   15.65170692655227
C         4.31815694385836    3.06764545939167   15.25844290087631
H         5.07543029869008    2.69121762421713   14.58648948889620
C         3.35267874461543    2.19913909222987   15.74030033487116
H         3.36782673973227    1.16251259115407   15.43421277995201
C         2.37452939810269    2.64884237541340   16.61133478804242
H         1.63131286434826    1.96144853868404   16.98821583055995
C         2.34949116157256    3.98078722340571   16.99493379030026
H         1.58680775554624    4.33958407179311   17.67023645431330
C         3.30975968882424    4.85194231010631   16.51773230176815
H         3.29148630388647    5.89714139680533   16.80105007856833
C         6.89197074341582    4.73680596346264   14.34079209372821
H         6.49547811068670    3.93807153856338   13.70783520733628
H         7.42036540050150    5.44705718733771   13.69517287521720
C         7.83613881777610    4.21493383989954   15.41378650577912
H         8.70883809532659    3.71989777693370   14.97328516517081
H         7.30617249413156    3.51576488548907   16.07149531600615
C         9.52480027415713    4.81720798715599   17.63464387688080
C         9.72433943111488    3.44630616126527   17.73996575156837
H         9.17583191253778    2.75733329919021   17.11665155020072
C        10.63515541631883    2.94811136230260   18.65614227427972
H        10.79026441541422    1.88095175049405   18.72423564232015
C        11.34550899763641    3.80354389340930   19.48027647708767
H        12.05364165409962    3.40613833828013   20.19259374415233
C        11.14765860201270    5.17228229100040   19.38496005170032
H        11.70084075234597    5.84897585615983   20.02050089515018
C        10.24550800136402    5.67146583328336   18.46704516213617
H        10.09777496580402    6.73843430963019   18.36706591493631
C         9.64850072398780    6.31293768372696   15.29898404315179
C        10.94300784334791    5.80857267800287   15.21553584331664
H        11.26760604914542    5.02744113543956   15.88818159348864
C        11.82207443198775    6.31089540418031   14.27364632241541
H        12.82776109587694    5.91893616958749   14.21938677864518
C        11.41995152733949    7.30887443810439   13.40069906891402
H        12.11247239535169    7.69689082842618   12.66775143318820
C        10.13092476108837    7.80865006036395   13.47360575762234
H         9.81184748552856    8.58934333387642   12.79806541027991
C         6.56508104412523   12.69110345212818   17.67464570237792
H         7.16092330540383   13.54887585711193   17.39709330347246

