84
CSD_code = HIKDUB | q = 0 | S = 0 | Stoichiometry = C33H46Cl2N2Pt | MND = 5
Pt       12.85278248833388    3.85637355936859    3.89310521453094
N        11.70816669099555    8.59503503398622    4.70625738054983
C        10.80738448789889    7.60030147114398    4.64797240399242
N         9.59910828678016    8.15499625241962    4.42456151541909
C         9.74682873733641    9.51808775384540    4.35757756963113
H         8.91358431821821   10.17090178554686    4.20526890499139
Cl       13.85152329606659    4.78523155454333    5.68617787130688
C        11.06081426546694    9.78888140546732    4.53237155553153
H        11.58300621522134   10.72221922827492    4.55604631005224
C         8.35621159588921    7.46018258430356    4.35156518399109
C         7.83815258470904    6.88166595513528    5.51608065398585
Cl       14.11067157940376    1.88710602708261    4.17871453023456
C         6.63366542010911    6.19669210289632    5.42196746317052
H         6.21297451255858    5.73956236765080    6.30302307526130
C         5.96183131229387    6.10007193920648    4.21945775568574
H         5.02829137127841    5.56123803487870    4.16548620772946
C         6.47377278308350    6.70612594048998    3.08906392246281
H         5.92908790542908    6.64225331475070    2.16117461943585
C         7.67903074573142    7.39514273848047    3.12959402609562
C         8.49765218005871    7.04449360782816    6.86619234163235
H         9.46930214660784    7.53028541852680    6.74419859003636
C         7.63196087945339    7.95860069222485    7.74048622421428
H         7.47927530645205    8.92190156327425    7.25707749924546
H         8.11925337134865    8.12641286522088    8.69778364359492
H         6.65911622554265    7.51048670945904    7.92430604617916
C         8.73733526470615    5.70313412229507    7.56091457596233
H         7.80032392557876    5.20283302214205    7.78832170243255
H         9.26863682358878    5.86616601506091    8.49509992116060
H         9.33971304266840    5.04432995594328    6.94144407361005
C         8.18985419758562    8.08263624289025    1.88429118311132
H         9.22893506756514    8.38875005302105    2.04190954465177
C         8.15440638278992    7.16289638757618    0.66135350955896
H         8.62535796703116    6.20881319681491    0.87976978056522
H         8.68882772601529    7.62941808152320   -0.16292566011033
H         7.13442873626838    6.97859646778974    0.33605929083311
C         7.35263041498752    9.33762263193820    1.61297329429155
H         6.31679392225820    9.06725483960314    1.42345191453872
H         7.73707015049590    9.86111538960660    0.74095048763995
H         7.37255017456856   10.01921520724154    2.46039977401425
C        13.10770322832167    8.45682471010603    4.96519947116251
C        13.52853042447075    8.21066360308681    6.27305756026095
C        14.89033473277541    8.07081391438847    6.50089281466501
H        15.24166424837994    7.86439905840037    7.49764208272749
C        15.79658621626580    8.17631442276755    5.46595942148585
H        16.85058575438367    8.04880337242150    5.65843390627157
C        15.36052012951582    8.44319844572711    4.18280059401880
H        16.07975296640427    8.52940394922345    3.38455964106976
C        14.00869985783867    8.58554589021283    3.90475459063826
C        12.56232693341601    8.15704320067098    7.43202344256677
H        11.54134188855174    8.05847808430035    7.05116343048108
C        12.63856909926048    9.47270761506666    8.21537782201034
H        13.64475010905159    9.63024730891926    8.59514197053086
H        11.95169570595817    9.44615751851462    9.05834032245900
H        12.37581067093150   10.31885569027162    7.58191012983958
C        12.83752891475339    6.95976410017329    8.34322230363520
H        13.02558454001156    6.06942610193096    7.74712207099383
H        11.98383438230179    6.78283129407176    8.99363256894090
H        13.70539731321408    7.13887408382680    8.97114126775476
C        13.55339442384086    8.89238800786385    2.49522150265112
H        12.47410977523656    8.71965332791807    2.41839209385312
C        14.24349804939482    7.99460279583778    1.46467945663391
H        15.27801613450068    8.29115685364701    1.31641775425919
H        13.73238614044261    8.06996105913083    0.50705198621246
H        14.22884001594989    6.95637319009656    1.78682306230388
C        13.82653637753548   10.36558827857175    2.17322575135508
H        13.30141091227289   11.02437996161827    2.86174386320735
H        13.50023743815556   10.59471519574163    1.16119857106588
H        14.89041991503359   10.57625849582015    2.24864553173864
C        11.10753782253642    6.16929199782599    4.75464691071348
H        10.17997292258844    5.60369879952791    4.84127472459134
H        11.73816651584117    5.99329619072365    5.63299927812877
C        11.91681118077954    5.67183053193322    3.53681255831682
H        12.74322975643507    6.37600525703340    3.37852108006305
C        11.07256959146835    5.62001643851252    2.26131818413687
H        10.92030596313098    6.61784928427103    1.83204332935512
H        10.08633172136820    5.20555468739477    2.48674420862153
C        11.78936169744657    4.72927371515501    1.24371024232197
H        11.13169535069651    4.48813093425444    0.40138416605148
H        12.65282324022735    5.26393515942404    0.84084982629046
C        12.26316840072795    3.44861090872576    1.89654030573529
H        13.06090544990861    2.92732664425475    1.36946183298960
C        11.46508177170684    2.71784050539071    2.77237260289534
H        10.44630728825360    3.02926420754938    2.98284834704986
H        11.66205252633883    1.66121368825118    2.90527351672397

