101
CSD_code = HIKDEL | q = 0 | S = 0 | Stoichiometry = C40H54MoO4P2 | MND = 6
Mo        0.00011690161003   -0.00052761367201   -0.00006051912591
P         1.30107095263173   -1.39193531394121    1.58858550868940
O         0.08041875407886   -1.19705380927208   -1.24951797705255
O         2.03810536186921    0.66141349225975   -0.44538291826101
C         2.64396719527675   -1.41885594487456   -2.26094363977815
H         2.59213022882296   -1.46119534523318   -1.16583183292753
H         3.59142735130785   -1.84832468296663   -2.59635947722531
C         0.21626466583470   -1.99848388782820   -2.29835230273218
C         1.49825408918155   -2.18592733168594   -2.84986913046315
C         1.66132618989661   -3.02323471224608   -3.93934339664841
H         2.65253699469564   -3.16281640420408   -4.34801881292624
C         0.58423120874064   -3.68322153412224   -4.51362935204559
C        -0.67768430213421   -3.47357198286386   -3.97604031278943
H        -1.53095559131753   -3.96809785934314   -4.41978423035759
C        -0.88624345222517   -2.64580213780006   -2.88363444131739
C        -2.27581090104755   -2.42804866533399   -2.36045237693762
H        -2.25524450646945   -1.80420815389175   -1.46658118119631
H        -2.74209893602428   -3.38249207582880   -2.11858409537595
H        -2.89140539245076   -1.94483960217185   -3.12088572829915
C         0.76413093087413   -4.59344507454453   -5.69145056974362
H         1.81247781200184   -4.66794601133223   -5.96854342255330
H         0.20444642199754   -4.22064481482005   -6.54873636059978
H         0.39297483990284   -5.59147691117286   -5.46163341953329
C         2.29415266806625    1.01376871649512   -1.68526427271686
C         2.36789158513647    2.37191211637114   -2.06978620537513
C         2.60639159604797    2.70472353381618   -3.39010421341698
H         2.64517927461940    3.75049238007814   -3.66880381743530
C         2.80652351712875    1.73811247205321   -4.36899462218407
C         2.80778357185142    0.40785414126226   -3.97888297836934
H         3.00019365955816   -0.36381142057265   -4.71270751757014
C         2.57395524467001    0.03799348637071   -2.66535401917809
C         2.22664644823645    3.43396015265469   -1.01769722875957
H         1.99072369532296    4.40095222368695   -1.45927377697427
H         3.16501133671484    3.53193580263972   -0.47001466055346
H         1.45279984087917    3.15543746220253   -0.30158379136579
C         3.05547269619576    2.13595101468587   -5.79504169975632
H         3.00086130056714    1.27113039320504   -6.45212470582332
H         4.04483284433551    2.58303351438530   -5.89943038145360
H         2.32255118034456    2.87159668856082   -6.12452596074403
C         1.19276600750028   -3.22498566643987    1.54678111668459
H         1.98196475083834   -3.65939734672216    2.16028672253283
H         1.29780852321383   -3.57768707239768    0.52035841261501
H         0.22537432976689   -3.53221520682342    1.93246499982970
C         0.89500136339571   -1.07052503873270    3.34729041661726
H         1.47148387478443   -1.73088725269542    3.99537495322222
H        -0.16815528550790   -1.24030376274798    3.50880134291325
H         1.12118829271887   -0.03330421497115    3.59140875679691
C         3.13769875458004   -1.22796738145551    1.65717272609918
H         3.51044468827739   -1.59134016902899    2.61480309754825
H         3.41874756776426   -0.18796851632209    1.51690829100282
H         3.58363937147511   -1.81112117187790    0.85314858456644
P        -1.30119499673241    1.38979771087231   -1.58838347074959
O        -0.08045266858874    1.19573414651432    1.24964320009434
O        -2.03795472861605   -0.66234182886551    0.44602763482552
C        -2.64376482202300    1.41924736794158    2.26061327918097
H        -2.59196448094882    1.46112070838066    1.16549407971068
H        -3.59119825670297    1.84892393853786    2.59585409718288
C        -0.21592158128764    1.99765104437313    2.29814698311950
C        -1.49792503947383    2.18647598810816    2.84908969257432
C        -1.66090566365062    3.02530815340425    3.93743014626373
H        -2.65219432678955    3.16601828056948    4.34555668071547
C        -0.58362083474043    3.68543788716867    4.51114564561882
C         0.67840244605175    3.47410474211525    3.97440161181655
H         1.53183057809748    3.96848073070113    4.41799400487504
C         0.88685506736267    2.64480986988598    2.88315960298834
C         2.27649818653481    2.42525429707568    2.36093455697270
H         2.25583980242111    1.80109260542732    1.46729519440053
H         2.74404795980158    3.37908351062819    2.11909401714135
H         2.89103307029101    1.94159069482176    3.12191557843921
C        -0.76330096329859    4.59768240313969    5.68743307359671
H        -1.81173691987495    4.67379435136127    5.96374712739248
H        -0.20454142945484    4.22568505337248    6.54567204299965
H        -0.39091651265155    5.59492799729166    5.45621865070292
C        -2.29439562378603   -1.01385063317249    1.68607870140703
C        -2.36855350189717   -2.37175431282014    2.07137962379737
C        -2.60688114642869   -2.70375251828568    3.39191855453716
H        -2.64598586975492   -3.74934567004211    3.67121268706526
C        -2.80644420867605   -1.73651352133830    4.37032373590734
C        -2.80744999980332   -0.40649674497104    3.97943791736847
H        -2.99924098850975    0.36570655403513    4.71285925005544
C        -2.57382802469578   -0.03744486007911    2.66563689535199
C        -2.22801597217888   -3.43439380650140    1.01978733206507
H        -1.99247531031968   -4.40126221504965    1.46183209313739
H        -3.16651551339986   -3.53222989113213    0.47228900536602
H        -1.45413760466527   -3.15659123765142    0.30341776547929
C        -3.05497495664587   -2.13341498218446    5.79668922187396
H        -3.00019135780956   -1.26814309878268    6.45316030757040
H        -4.04430060690404   -2.58041934889884    5.90164123941645
H        -2.32195056873644   -2.86883225209826    6.12647122667047
C        -1.19427022687908    3.22291128560240   -1.54597809742879
H        -1.98367778824698    3.65727063883090   -2.15929558558468
H        -1.29953893943208    3.57502873039785   -0.51938746205431
H        -0.22699540377813    3.53089855871355   -1.93136116519192
C        -0.89490319693993    1.06933838604108   -3.34722472367730
H        -1.47197154335423    1.72933087011036   -3.99517468434322
H         0.16811522716837    1.23983218040351   -3.50888959621191
H        -1.12045297354836    0.03199728950281   -3.59146747242724
C        -3.13775834141209    1.22498262190430   -1.65752074972198
H        -3.51074537098601    1.59169301650627   -2.61370541738547
H        -3.41826733857838    0.18436072631385   -1.52128534471269
H        -3.58447625106842    1.80461108102897   -0.85148826774792

