33
CSD_code = HIKGOX | q = -1 | S = 0 | Stoichiometry = C16H8CuN4S4(1-) | MND = 4
Cu        2.05970730659435    5.44361819081586    0.97200282468451
S         2.58047462865726    7.57779728051193    0.72902465936945
S         2.02010926552639    5.62212463238013    3.17449248041689
S         1.93317260069109    5.29824154555002   -1.22966717859839
S         1.69879998813330    3.27699178078352    1.21595366506117
C         2.41811407249721    7.28684903800861    3.46114663221587
C         2.66005993505267    8.17146655188952    2.35785410012137
N         2.48434613111397    7.70134480107727    4.69468066509209
N         2.94677166086394    9.42906310718424    2.54260064519125
C         2.78500686949023    9.00476300194103    4.90885994377509
C         3.01733141556435    9.88121984578158    3.81764905859049
C         2.86717099556465    9.49790191254508    6.22105225031273
H         2.68703980327042    8.81380717747581    7.03615506991032
C         3.32502388830163   11.22845862049902    4.06689594007613
H         3.23426051946820   11.20069347037796    7.44490723057146
C         3.16992820567268   10.81770196812981    6.43566689792967
H         3.63566101739497   12.72023491091375    5.55347688527774
C         3.39862812826401   11.68336351162550    5.35821901119454
H         3.49786641539891   11.87777459288206    3.22234139885137
C         1.48662689882752    2.70877795154551   -0.41007389494151
C         1.60263081789002    3.61831688877534   -1.51358615761584
N         1.22742992026074    1.44493017957543   -0.59258704556898
N         1.46241426354113    3.21709389584553   -2.74533798282821
C         1.19381865071398    1.90630067477430   -2.95715285357982
C         1.07290289316018    1.00812995414249   -1.86556852472286
C         1.02991701247514    1.42780707150506   -4.26710656306356
H         1.12578019444156    2.12809152675323   -5.08268937271335
C         0.79084251383861   -0.34521044986811   -2.11201492644514
H         0.70279912726569   -1.01081128600169   -1.26703004331113
C         0.63492162617192   -0.78531586066700   -3.40109397553643
H         0.41698281650592   -1.82673558152875   -3.59436673350402
C         0.75467849491078    0.10148116544135   -4.47900769038261
H         0.62718192247643   -0.27017207066648   -5.48649641583146

