72
CSD_code = HIKHUE | q = 0 | S = 0 | Stoichiometry = C31H36O2P2Pt | MND = 6
C        12.52662051790912    4.99512139846005    5.63511845662980
H        12.67628130032836    3.95963830590397    5.95115995944101
H        13.40288689148242    5.30544395138094    5.06869758455667
H        11.65564772933382    5.04530576404817    4.97891190112794
C        12.27616913665911    7.82685336249867    6.06112330885459
H        12.48331414240017    8.71520974361828    6.66275594787634
H        11.31135754902949    7.94835791482450    5.56502259560995
H        13.04164334115302    7.75093024266080    5.29073478293825
C        14.16569909860489    6.27279010062653    7.59030841504592
H        14.37150130469979    6.76271719301037    8.54333734802277
H        14.67454245268837    6.83863642222078    6.81022959300153
H        14.59091426618182    5.26778541693844    7.61251472221948
C         7.70934005163596    5.76713864295155    7.56775704476491
H         7.45969139345194    5.90831471607786    6.52045969792526
H         7.23532939359233    6.53804516061046    8.17168283963449
H         7.35827259985956    4.79595160140567    7.90953262493315
C         9.21586123997347    5.84515890793273    7.76440354148944
C        11.26533775592388    6.32462076159806   10.89595225545681
H        11.91558530825541    6.71095311888632   11.68434542756845
H        10.22713197995393    6.48246169893440   11.19375759975325
C        11.49901739478761    4.82658876260757   10.67859849570131
H        10.61695441464318    4.27761731348149   11.01383253541290
H        12.35961827053447    4.47838728931972   11.25423087600229
C        13.24359966412953    3.27265776163143    9.07444589310869
C        13.35305375274153    2.06134088631338    8.39863352398612
H        12.51689679956472    1.69089921260360    7.82182059863102
C        14.51919567684423    1.32018725219540    8.46415412505070
H        14.58393094369925    0.37646678001873    7.94177524886916
C        15.60118400853453    1.78409138428517    9.19278289763489
H        16.51014614414636    1.20327890015582    9.24548166379293
C        15.51617359222082    3.00410378814014    9.84315110325564
H        16.36298545195558    3.38220638188205   10.39810858394662
C        14.35106339124729    3.74379990715360    9.77515400856048
H        14.30514560396999    4.70784644900544   10.26377429100190
C        10.53513718471468    2.99659859814958    8.64132164272571
C         9.89176083450533    2.87814151814265    7.41583626186526
H        10.10388052192492    3.58856376818828    6.62992923569303
C         8.97880008045356    1.86003094172106    7.20061705618262
H         8.47774350915806    1.78073163643301    6.24659082034129
C         8.71074335220104    0.94494667599321    8.20399989007744
H         7.99599772701583    0.15190542738210    8.03881806203093
C         9.37041078364884    1.04171200889016    9.41890230909072
H         9.17638095546030    0.31834951842242   10.19809213481416
C        10.28206874942144    2.05790722117359    9.63677499092996
H        10.81108693447080    2.10987797270011   10.57854304440562
C        12.77359329950140    8.53832433861317    9.91619860642802
C        13.88403442855123    8.10274677835665   10.63362435080139
H        13.95417332277799    7.06879921015002   10.94605697847062
C        14.90592373423888    8.97654358539787   10.95623594682248
H        15.75848022804571    8.62348925614927   11.51892590869285
C        14.84022251866765   10.29960888806445   10.55388971652793
H        15.63725328998934   10.98307038180151   10.80662998884064
C        13.75173497925624   10.73954588192400    9.81923346363258
H        13.69873455842972   11.76879736519231    9.49487221941474
C        12.73166616899984    9.86445897933901    9.49607615688038
H        11.88657165694781   10.21382531516064    8.91863357510916
C        10.06164130169076    8.50814314412413    9.46482048916393
C         9.67653250520881    9.04791438482922   10.68835235174905
H        10.21684072613941    8.78815910948962   11.58817184502046
C         8.61413256683056    9.92966008328373   10.75524371997813
H         8.31860182405518   10.34320457477896   11.70892876620283
C         7.93181935099006   10.28825219096268    9.60334282869955
H         7.10038704430876   10.97558884596310    9.65979397404226
C         8.32472391064644    9.77124316456223    8.38113422401773
H         7.80332817629576   10.05678998581432    7.47886371163239
C         9.38921812025174    8.88865517006110    8.31092905662216
H         9.69765810039267    8.48806968644704    7.35648307890830
O         9.92350680747583    6.06972974081475    6.76516914646404
O         9.66601279616879    5.68344854081377    8.92215040146762
Pt       12.12149418638186    6.16869163585566    7.29160965052027
P        11.47623703915630    7.35880084170321    9.36519442263270
P        11.75017416349900    4.33446713976971    8.90146048130610

