68
CSD_code = HIKJAO | q = 0 | S = 0 | Stoichiometry = C29H30Cl2N6Pd | MND = 4
C         5.56405353034217   -2.28156816600256    1.07787290167502
H         5.31359149599353   -1.35536428154939    0.54523827756013
H         4.64740572803320   -2.69838069431417    1.50520525973632
H         5.99504697605950   -2.99313799148173    0.37890485334687
C         6.52122106308733   -1.97384718726986    2.17476352998192
C         7.78625187167031   -2.50418965447350    2.45930348914188
H         8.30204852776234   -3.27053571568716    1.91824995757392
C         8.23343316816212   -1.83491180974947    3.57989037586016
C         9.51782825298056   -1.96059997804050    4.31569545392025
H         9.35414215552260   -2.26224213329241    5.35066977393394
H        10.06072124524211   -1.01551280468677    4.31586965488798
H        10.13357267061982   -2.71455668062674    3.83377617391400
C         7.27910504157826    0.04466223018192    4.97306625766910
H         8.02752316985683   -0.26393433370707    5.71834327123088
H         7.58851321528234    1.00183322437333    4.53090853992347
C         5.40077348373504   -0.77277310675699    6.34070879271380
C         6.04071420137867   -1.94812384613225    6.66848554265370
H         7.01732703644476   -2.18295538773378    6.27577043279218
C         5.42131798078525   -2.87881345573568    7.51031959430540
H         5.95217482453701   -3.78724821097439    7.75610513335280
C         4.17252049123800   -2.65226839900860    8.01410207037834
H         3.69898072630923   -3.37383933350822    8.66268746845162
C         3.45858966013497   -1.49217272073629    7.65061169939271
C         4.07931678725459   -0.53902660875945    6.81076474757091
C         3.33564562655710    0.58163239959118    6.35396199591043
C         2.02180476193482    0.72893298181163    6.73488715987594
H         1.42213151341458    1.54616243497497    6.36766341184938
C         1.42824101953009   -0.19841424033123    7.59867257982391
H         0.39803663604177   -0.05075410997814    7.88938303373318
C         2.12606167587030   -1.27827116678707    8.05841825812820
H         1.65836505983445   -2.00193662415767    8.70906545263197
C         3.28082176893885    2.48157041546591    4.78040242766524
H         4.01766405399777    3.09555778889779    4.24349504577958
H         2.68455476645126    3.12070088246545    5.44763338995993
C         0.40016894303038    3.39945750305751    4.11436160423487
H        -0.57049673531412    3.51877165001155    3.64158025371973
H         0.24161142402501    3.18725405107501    5.17171046649091
H         0.94525842115422    4.33963238731585    4.03043009283847
C         1.13679833114330    2.29692482616832    3.44427415300091
C         0.76162905607331    1.50953477768409    2.37521072546883
H        -0.16719798580203    1.54509151227427    1.84405069430434
C         1.84567526549538    0.65776579884403    2.12502935577178
C         2.03311701795409   -0.39157615078932    1.08757669657545
H         3.04784250678865   -0.31241641092237    0.67489107769405
H         1.30281020417154   -0.28104631548668    0.29037084604106
H         1.92488084783276   -1.37766215462998    1.54446511899895
C         5.42829765610358    1.54956806820963    5.66085731615939
H         5.82613300634748    2.15410823612749    4.83245195622034
C         5.75058775710253    2.23940099565541    6.97985738122323
C         6.25268864550811    1.57146201140791    8.08798333339970
H         6.46000429115374    0.51382929727145    8.04214829502599
C         6.49091725453918    2.25382582639702    9.26948761151604
H         6.87871163160255    1.71857872414497   10.12344243029217
C         6.23377949933609    3.60965348655380    9.35934417677721
H         6.41845105551738    4.13842338125509   10.28236262322189
C         5.74406514992053    4.28667766321029    8.25497840860014
H         5.55006286958473    5.34755449299704    8.31158023560048
C         5.50765118629313    3.60648954822438    7.07530013355526
H         5.13862954515924    4.14406484778752    6.21381989606357
N         6.23189982766291   -1.04643167557100    3.07325063815677
N         7.25722557059661   -0.96328938660665    3.92603413810247
N         5.97417964108138    0.21222734014526    5.53516899806457
N         3.98703238085884    1.44507800479512    5.47264408422021
N         2.38204332000728    1.90183173303478    3.79786031018735
N         2.80680349211884    0.92120493910584    2.99491020534766
Pd        4.52358007384307   -0.05250250414255    3.07866854723386
Cl        5.63421424383557    1.83011827042986    2.30824432532595
Cl        3.43324441869376   -1.90847849131412    3.85445786323842

