69
CSD_code = HIKPUP | q = 0 | S = 0 | Stoichiometry = C26H36FeN4O2 | MND = 4
Fe        2.48595906321426   15.96556473209165    1.75220122193978
O         2.34933336860386   15.97441690385026    4.53510588829415
O         5.11451468393548   15.95222802874239    0.84071006197823
N         1.03750306588271   14.66837251292808    1.19985939655170
N         2.56868347650016   15.97034770236432    3.37017977571275
N         3.94303580470532   15.95794438259242    1.00188191083985
C        -0.12129286367501   15.26956496361407    1.01124830882535
H        -1.02302563477687   14.70133973816738    0.80133909945630
C         1.08585144631805   13.26563110871627    1.02852225842036
C         1.44214137341139   12.74994672201773   -0.22558607570664
C         1.78416524366300   13.67517460742728   -1.37151375985196
H         1.94029680411194   14.68268427904960   -0.96368757471314
C         3.07937044954632   13.26087202888241   -2.07042730483587
H         3.88276602813408   13.15876505010809   -1.34470109947429
H         3.36586174232856   14.01906226867890   -2.79621274893645
H         2.96425180104213   12.31708481081110   -2.59702837481505
C         0.62248939236750   13.73529686490895   -2.36686682670060
H         0.41963370246230   12.74839124399728   -2.77706223037135
H         0.86366621032551   14.40772309356507   -3.18736872099272
H        -0.28134112511473   14.09685532847129   -1.88012409825418
C         1.45601007094438   11.37389274180752   -0.39594584423341
H         1.70882946482207   10.95824899628272   -1.35894913794102
C         1.14724173012414   10.52471997210533    0.64993451141652
H         1.16304494851006    9.45545046074018    0.50015764535704
C         0.82461917878507   11.04514915371839    1.88808121220424
H         0.59752816789814   10.37487564118237    2.70275015476747
C         0.78008000269331   12.41605044795319    2.09816767377421
C         0.45077051006705   12.96864297179650    3.46516193451349
H         0.41563074113934   14.06167576419860    3.40584599733615
C         1.55827893672012   12.59544491417797    4.45324452717393
H         1.61376236339647   11.51802436948268    4.58879899596050
H         1.36950416132368   13.05930817704351    5.41841404487825
H         2.51943184794680   12.94901709593373    4.08510068996670
C        -0.91292323065110   12.47938894250273    3.95576128967572
H        -1.69168161070276   12.73279060216087    3.23875624245293
H        -1.15427406049589   12.94788389414982    4.90721424694284
H        -0.91542037250196   11.40159511291091    4.09680612278497
N         1.04148187997451   17.26888553382033    1.19715014003706
C        -0.11922466954762   16.67089885979228    1.01077418032083
H        -1.01969564771963   17.24155895797567    0.80194781555028
C         1.09268365947378   18.67173673235373    1.02828052020495
C         1.46159079223047   19.18875327232698   -0.22167024039739
C         1.81343168594998   18.26407537720632   -1.36501917076119
H         1.97424655771412   17.25828699783506   -0.95458098600987
C         3.10812378989405   18.68458132550521   -2.06101652369032
H         3.90790652428160   18.79644568125540   -1.33277521898380
H         3.40311596436086   17.92477217529625   -2.78167002889630
H         2.98797535056061   19.62461503849276   -2.59319465037291
C         0.65512864870361   18.19516462444621   -2.36377166422218
H         0.44665095353804   19.18049452764264   -2.77500883272242
H         0.90352349391082   17.52408741108177   -3.18322323433391
H        -0.24757139269148   17.82747038063307   -1.87953738449168
C         1.47677005309492   20.56492575472237   -0.39064872659748
H         1.73876287983395   20.98156519073099   -1.35073523497572
C         1.15751287940925   21.41304936341669    0.65296980179832
H         1.17433752287160   22.48246211487624    0.50431177105754
C         0.82308642525154   20.89138519463646    1.88742240343322
H         0.58791071172529   21.56085420296466    2.70047318350635
C         0.77672945917463   19.52025820828958    2.09584694177564
C         0.43428576714807   18.96700098625672    3.45938008063310
H         0.40640296518216   17.87372085519230    3.40106162240678
C         1.52671448189091   19.34769353387015    4.46126771824696
H         1.57338146550885   20.42540722790538    4.59765437560475
H         1.32876690663995   18.88255007479852    5.42397954803816
H         2.49479698658279   19.00056076967712    4.10557402059493
C        -0.93834265194267   19.44902417878307    3.93203073952224
H        -1.70691111241528   19.18827028115422    3.20671259888041
H        -1.18812541330457   18.98232134965699    4.88218715080465
H        -0.94924380028737   20.52729818827078    4.06905786963752

