87
CSD_code = HIKRIF | q = 0 | S = 0 | Stoichiometry = C36H42BFeN2O4P | MND = 5
B         7.94181315025845    5.72376652528375    5.28037835284621
N         8.46324797378153    4.40907032927879    5.37849168875772
C         8.48342175220596    3.87093006687177    4.10249465729511
H         8.84304808023296    2.87654054039570    3.92423847200259
C         8.01290510497182    4.77692390595430    3.22487036581016
H         7.90903695976146    4.70071688036137    2.16045691014381
N         7.66516590276334    5.92727529765008    3.90396942213089
C         7.21629648573015    7.07388393860227    3.19533786591577
C         5.90733915722321    7.11963592847031    2.70477191915812
C         5.51745043519656    8.22664793168444    1.96329360254144
H         4.51338373102047    8.27978744917177    1.57240333224919
C         6.39638644112150    9.26220754974416    1.71693389253565
H         6.07631029677496   10.11669676904876    1.13954364470109
C         7.68620559572138    9.20519390566005    2.20732790070105
H         8.36650998505747   10.01668049517355    2.00185566100252
C         8.11796097788912    8.11719329514518    2.95242482869862
C         9.55218159862104    8.04322252428155    3.42596697982581
H         9.62758669151869    7.27267986586499    4.20096315987123
C        10.03275035938243    9.36334475817691    4.03046512865141
H        10.98104711674380    9.21416316968734    4.54353940530075
H        10.18386886273963   10.11782872916193    3.26301142721975
H         9.30592687168610    9.74406128557802    4.74604324523230
C        10.45261855447957    7.62126818789842    2.26111913987708
H        11.48941508583392    7.56616059373324    2.58615001316783
H        10.15604975364578    6.64382291990052    1.88651018610477
H        10.38212058266429    8.33814285202367    1.44606287651106
C         4.93441165212239    5.98857430209274    2.94275863209959
H         5.35346834951529    5.32048532373190    3.70185635826386
C         3.58810158896794    6.50070951344952    3.45822378089218
H         2.97984919001414    5.66472156563333    3.79638055376877
H         3.73468062889859    7.18101726121159    4.29680168418519
H         3.03933840210344    7.02393287160136    2.67943065041295
C         4.73194337830623    5.18749912446257    1.65284798178395
H         4.03413400105951    4.37119940027207    1.82558034373300
H         4.33076211162560    5.82525083160010    0.86820552300735
H         5.67210128140703    4.76700473389436    1.30336692179654
C         8.98685604752937    3.65505788371934    6.46304019607491
C         8.21362710698658    2.63800543684207    7.03080780349261
C         8.76581197468139    1.88531158386867    8.05879398377584
H         8.19106700060540    1.08996939787817    8.50694505894712
C        10.04440305459218    2.13760594348640    8.51163977721247
H        10.46096752156647    1.54313816969568    9.31138202342483
C        10.79954864378853    3.14370102751132    7.93855174560487
H        11.80011357817183    3.31654252610128    8.29924174723799
C        10.29029630290836    3.91770729705136    6.90691609497299
C        11.12181007928005    4.99373025191440    6.24252665317977
H        10.45581965783253    5.83558424466950    6.01381502081181
C        12.25516029646427    5.52061910988244    7.12076305525104
H        12.67605939343998    6.41755118291237    6.67073229098007
H        11.89259989348238    5.77020534195403    8.11403754003530
H        13.05399575522736    4.78783813019298    7.20818859788923
C        11.70798524839769    4.46885211074113    4.92629392601788
H        12.33281638401681    5.23154456640414    4.46646595540466
H        12.31995789252248    3.58909748755791    5.11573411330001
H        10.92409824702804    4.20078990626985    4.22346696269336
C         6.82098983436241    2.33242510629162    6.52793591427929
H         6.48067636548504    3.17006558973153    5.91065212606029
C         5.81476282550453    2.14931701573845    7.66612695903862
H         4.80685384307339    2.11830724769776    7.25902141011765
H         5.99005445318413    1.22091087242016    8.20406490268188
H         5.86877240776267    2.97179105569985    8.37498377878263
C         6.84569604640576    1.07015224550546    5.65970327884589
H         5.84499809289598    0.84784424417653    5.29629399113993
H         7.50094493318306    1.19768338759158    4.80176210507582
H         7.20135924452672    0.21989854338040    6.23796947367856
P         7.58105196193783    7.02363982613021    6.62782535559560
H         8.54278497326032    7.99232704282226    6.32408333747007
C         8.39561575703953    6.40744385858464    8.13471380655086
C         9.52693775893039    7.01790954172839    8.66122567425533
H         9.96466776999315    7.86905774564949    8.15612809029600
C        10.08453548767607    6.54171974901322    9.83555364678466
H        10.95559135598842    7.02801267202842   10.25144842814177
C         9.52628921561742    5.45207052491860   10.48102228302973
H         9.96822259563812    5.08120658745499   11.39369271859786
C         8.39040019772398    4.84755299589483    9.96575720279120
H         7.94633279134910    4.00583394214088   10.47580322964664
C         7.82076115802928    5.33299630779165    8.80623680529908
H         6.91465404637627    4.89516225423795    8.40905396202556
Fe        5.52092623283407    7.77048380251971    6.92909246103288
C         5.94174807369375    8.28611732104691    8.59339840658575
O         6.20188407948133    8.60094647982861    9.66751466556645
C         4.95154247619526    6.11115766078907    6.60901878951869
O         4.57827504220831    5.04137950077669    6.39562134338732
C         3.85521238717311    8.28031837314995    7.12184163680451
O         2.75665440363629    8.60012192569080    7.23561509578095
C         5.75925261841655    8.97050392744010    5.62409033591129
O         5.88661940084967    9.77585043068681    4.81312973074156

