122
CSD_code = HIKREY | q = 0 | S = 0 | Stoichiometry = C57H53AgN2O3P4S2 | MND = 4
Ag      -10.48800090568448    6.32136128282210    5.66997091049164
N        -7.83882837738642    6.77086143619565    4.53885869726835
N       -12.15651058147075    6.83636775654308    3.97461448535169
O        -8.86424228555866    7.11291955476958    3.91648755805056
O        -7.94116540396841    6.49186429733071    5.73634273112507
O        -6.77265817632992    6.69939608323724    3.96152253484619
S        -9.98059979935818   12.92774362545056    5.50529159373333
S        -8.81672863302916    1.10699543693568    1.67600848318200
P       -10.47056060405429    3.81013703845605    5.67151699535848
P       -10.64878518985631    8.18459506427430    7.34301434898688
P        -9.34086292138055   11.35552373976367    4.56684988772724
P        -8.06710002339526    2.85124929628594    2.07588184876781
C        -9.89717390346516    2.97399530012124    4.13159686092700
C        -8.49072966799382    3.43722166197906    3.78135462416998
C        -9.67647222061435    9.58521829345956    6.65306763845734
C       -10.12147279757416    9.81802603458658    5.21603046673031
C       -12.85992510661124    7.94975095387768    4.16580969995414
C       -13.15009795378843    8.85138163191124    3.15638125919523
C       -12.69686366991200    8.58003970505718    1.87505016373918
C       -11.98250120375712    7.41198816292500    1.66348941904524
C       -11.73388798520536    6.57846898052681    2.74046707503444
C       -12.04687468950378    2.92934340698833    5.92570079915956
C       -13.21479056757823    3.59446360783387    5.56807074764139
C       -14.43937276291499    2.96605035747691    5.70039304494367
C       -14.50290844962946    1.67446357415857    6.19734115681790
C       -13.34140982514900    1.01347157804808    6.56367710210570
C       -12.11376704123437    1.63585147099854    6.42952314000316
C        -9.40537922903967    3.12071324191791    6.97683299316592
C        -8.69387392491412    1.92836012000534    6.88600766406537
C        -7.91862287538656    1.50677735907314    7.95230945918916
C        -7.84729709434680    2.26318616412338    9.11060619803286
C        -8.55245006640251    3.45218702476781    9.20596814374045
C        -9.32394693391133    3.87824095441828    8.14241382056367
C       -12.27264347024084    8.91376121413191    7.72910739770552
C       -13.26240700425265    7.99632070793104    8.08124128661223
C       -14.53911589125378    8.42299025096127    8.39001380783318
C       -14.84509142607473    9.77422188073442    8.33309559069826
C       -13.87128122233321   10.68865263263092    7.96863484816071
C       -12.58700181599791   10.26676530212456    7.66714941729884
C        -9.86503721295417    8.03288884662759    8.97970092146054
C       -10.41717415444538    8.54261183271541   10.14842940227543
C        -9.74936465026287    8.37826093630053   11.34942029353906
C        -8.53744369468137    7.70887924633713   11.38919366419253
C        -7.98748516962646    7.19734822162936   10.22391145243422
C        -8.64953958365277    7.35246365824809    9.02078748002503
C        -9.68684422241216   11.33251665641615    2.77020827075020
C        -9.75265130374390   10.16532479313804    2.01647441853873
C        -9.99030177697958   10.24844398095876    0.65589226814740
C       -10.16333889831935   11.47908750892294    0.04400427204114
C       -10.10272790037570   12.64084676948718    0.79559671354856
C        -9.86480041934821   12.56629167276956    2.15531917686430
C        -7.55250981161863   11.03612235233520    4.72666247582669
C        -6.80021191434260   11.85619519343719    5.55608447255043
C        -5.45307082180849   11.59885396554999    5.73736041304068
C        -4.86281758009057   10.52179673325464    5.09676591232168
C        -5.61290644498488    9.70835192610195    4.26139388842857
C        -6.95658110817479    9.96693448714745    4.06816163915496
C        -6.24690765608147    2.94489079117387    1.97255852655394
C        -5.62185042597450    2.02960630845258    1.13380361768900
C        -4.24694555007249    2.04402340820017    0.99261601789090
C        -3.49331793893461    2.97278245888820    1.69161106999619
C        -4.11601921929647    3.88280421084531    2.53019091865481
C        -5.49181915482015    3.87625596502307    2.67708235816986
C        -8.66660425635111    4.20326116564500    0.99962836264438
C        -9.63711715432626    3.91868729361309    0.04907984181019
C       -10.09075270834556    4.91735999080808   -0.79402086464828
C        -9.57039760410559    6.19700764740075   -0.68838827414939
C        -8.60256770793732    6.48111044384862    0.26323059723167
C        -8.14435321918020    5.48791830762774    1.10803777671134
H        -9.94961663040304    1.88363558352037    4.22360335173639
H       -10.59750579019575    3.26398607424966    3.33731587071911
H        -8.44606038225608    4.52653947810759    3.79221614255889
H        -7.75315565173296    3.04769988036568    4.48922668240033
H        -8.62229279689883    9.28830095569927    6.68074866222118
H        -9.78820657295520   10.48774852534263    7.26612920009749
H        -9.86235404550418    8.95541508657778    4.59986783953028
H       -11.20507755704963    9.97633471681156    5.15818999005546
H       -13.21849280549193    8.11456310838354    5.17506912942390
H       -13.71711544873293    9.74398496055182    3.37083994099615
H       -12.90116607665164    9.26132556487154    1.06248009948834
H       -11.61804764475249    7.14445905532639    0.68452569226947
H       -11.18335412236233    5.65673498783139    2.60584237850431
H       -13.14953789285562    4.60739789148063    5.18794007037455
H       -15.34504679867640    3.48330535118308    5.41894783736813
H       -15.45858609516130    1.18284991200551    6.30325154817284
H       -13.39290676494749    0.00803134586533    6.95489526371360
H       -11.21021346596432    1.12144460129470    6.72385387764697
H        -8.73297557534882    1.32470881533647    5.99037983569596
H        -7.36464485315185    0.58238567668675    7.87592801078477
H        -7.23656852443319    1.92773960813822    9.93569724665799
H        -8.49576594333706    4.05065190053187   10.10339300292575
H        -9.86877306727682    4.81579389414437    8.19920672622025
H       -13.01227425978785    6.94118110629728    8.10678660730173
H       -15.29691458008239    7.70537590146135    8.66854379075516
H       -15.84325198479467   10.11251832660013    8.56839550596699
H       -14.10833150293200   11.74103534248207    7.91798160926906
H       -11.84872884719364   11.00247751575821    7.38525678382389
H       -11.36393315826957    9.06341100856694   10.12037715333989
H       -10.17754295983954    8.77585151720050   12.25802979723606
H        -8.02223291530131    7.58419480424132   12.33035985061857
H        -7.04297569886385    6.67407914506322   10.25337862457246
H        -8.23371499632105    6.94644871653419    8.10694008930487
H        -9.62476299846855    9.19384652920456    2.47082879548676
H       -10.03908369097615    9.34205016304317    0.07052535074700
H       -10.34675677427719   11.53212201126309   -1.01930703344098
H       -10.23956472749329   13.60233322547728    0.32345837366801
H        -9.82322693350452   13.46275588118506    2.75993151798140
H        -7.28195718925234   12.68790760549882    6.05316557388624
H        -4.86649758007532   12.23544314054122    6.38342969722522
H        -3.81350423536214   10.31470883276899    5.24725960993834
H        -5.16203951668811    8.85951376999387    3.77015634391642
H        -7.53749672619048    9.33714024554846    3.41230821649737
H        -6.22561759373651    1.30289888974713    0.60628451192735
H        -3.76457675646573    1.33112122428173    0.34027028292536
H        -2.41848911860717    2.98591515633016    1.58457460082704
H        -3.53029701662661    4.60669742087923    3.07688863643526
H        -5.95458093235669    4.59945893482181    3.33149365109863
H       -10.02167806756547    2.90978489168464   -0.02404432819528
H       -10.84346260068537    4.69519199271143   -1.53657749644148
H        -9.91137296722527    6.97241754830452   -1.36108400568332
H        -8.19506730408588    7.47794032860595    0.34593035007016
H        -7.38204089348055    5.71608890000901    1.83771815665773

