49
CSD_code = HIKSUQ | q = 0 | S = 0 | Stoichiometry = C17H23MnN6O2 | MND = 6
Mn        6.47095453630376    3.26854722258092    7.88757435169097
O         7.70282084974118    2.40296915272976    6.68983612832571
O         7.20662829185052    4.97815321607892    7.38811156387642
N         5.52166453371042    1.64444985567268    8.17500888894648
N         5.17193191390341    4.09460882764427    9.02010066985440
N         7.59271030868475    3.01141779395409    9.32897263615414
N         7.63631769225205    2.71010473005406   10.45867248807835
N         7.78947360526123    2.43343590805832   11.55267445540940
N         5.17085484365240    3.69872844146538    6.08569170852938
C         5.76504016337716    0.44777055215719    7.66344826208227
C         6.86989593489070    0.20132901998723    6.83764921784060
H         7.02454554797941   -0.81033166073378    6.49475974499378
C         7.77253883041580    1.17387827222075    6.40402770197245
C         5.05532556093092    5.37368271044774    9.33452097544354
C         5.82223520389330    6.36454761151703    8.70515870556644
H         5.62933174499519    7.39233989963728    8.97263060355953
C         6.82824421397566    6.12183242239327    7.76799168147835
C         4.32855149307285    1.79509277847379    8.99190907521524
H         4.24487413973311    0.98115461425057    9.72151779049546
H         3.44067524528234    1.75788430854927    8.34314095363598
C         4.36128248401473    3.13083446806538    9.74590208095998
H         3.33369957372240    3.48550800159346    9.88950126891782
H         4.80622899528061    2.97494236107441   10.73860646751967
C         4.84903789950127   -0.71848711766130    7.94173405619824
H         4.87186112743227   -0.97762867410593    9.00026101987449
H         5.16274602854864   -1.58806397226990    7.37224307210890
H         3.82013691597632   -0.47993515303841    7.67380386592177
C         8.89615010734169    0.73823118581476    5.48219379795946
H         8.49332711130826    0.33953383976641    4.55243900226617
H         9.48883887849215   -0.03929577632439    5.95834949811572
H         9.53487816362160    1.58991273227133    5.26352621614411
C         4.07418954667248    5.83235681414169   10.38540210904993
H         3.04626832275444    5.63419826483900   10.07933764428257
H         4.17833443510980    6.89950011857582   10.55579105790620
H         4.25537510273914    5.31148657685372   11.32458960301888
C         7.52509637821825    7.32111400823641    7.15256410071090
H         8.07419899003082    7.86234033341548    7.92026451076615
H         6.80069106386004    7.99991016918108    6.70695768933292
H         8.22318058199746    6.98183431607668    6.39201569185071
C         5.79844623778953    3.80890677862216    4.91785773364060
H         6.83792204726332    3.50911560295207    4.91053395849544
C         5.18520142177766    4.28892507985075    3.77240315512748
H         5.74243553222059    4.35862712271801    2.85136756633949
C         3.85705711948629    4.67877235224041    3.83562868042665
H         3.34744338295107    5.06081972298752    2.96349913743939
C         3.20103816884090    4.56941740307132    5.05135937354825
H         2.16797945324722    4.86291067431286    5.15578373896914
C         3.89707904517493    4.07713696177558    6.14255730716475
H         3.41066123072223    3.98588012782764    7.10432899279546

