103
CSD_code = HIKTEB | q = 0 | S = 0 | Stoichiometry = C50H44Cl2N4P2Ru | MND = 6
Ru        4.71789879393796   16.33317736626037   11.92196214809886
Cl        3.72949244725732   14.92748419936325   10.21670759736523
Cl        3.89594837026295   18.48890227317109   11.14588655879811
P         2.77945900976524   16.21665863180322   13.19141963933921
P         6.50838861218864   16.79898632602869   10.49787758355971
N         5.23162290053102   13.48637847391703   12.43006255560751
H         4.74385621103393   13.45719798867611   11.52814470668958
N         5.51588691540270   14.75483066933721   12.77291372184362
N         5.71192433712176   17.22499043846369   13.39474841392187
N         5.59302440176266   18.53550962410091   13.57844534300836
H         5.02501555770665   18.94343194027847   12.81707187735290
C         5.00820854828020   12.41190859405791   13.27959798387853
C         4.91872924913676   12.52232513077733   14.66622349292125
H         5.01284053496274   13.48527920104901   15.14527816897873
C         4.65238979137000   11.40547530605354   15.43497250380697
H         4.57152178195175   11.51044642063857   16.50699778289857
C         4.48183945359510   10.16592944919749   14.84495226597488
H         4.27952537688207    9.29740117268180   15.45267237865760
C         4.56134838937457   10.05188902030081   13.46550786392260
H         4.41770540835754    9.09074511063292   12.99432448266712
C         4.81785843559132   11.16077911763561   12.68746093170960
H         4.86407886599253   11.07964065195542   11.61182445975047
C         6.37155054309165   15.04401051437016   13.72209291292374
H         6.94004463334868   14.27744218960829   14.23338969491926
C         6.49496770496689   16.40726617547442   14.05402270368489
H         7.19498223424443   16.72870907442477   14.80936358530295
C         6.11261048389509   19.44555665829197   14.47480562579281
C         5.95258562711067   20.79184614402845   14.11861632411198
H         5.45736623683675   21.02475406396453   13.18774183906888
C         6.41316263144741   21.80016901075043   14.93492117930883
H         6.28282975673489   22.83004949726648   14.63725745973278
C         7.04055062598960   21.49829069956005   16.13472596372368
H         7.40673791437210   22.28674820605693   16.77411291701767
C         7.17518633261195   20.17461041848507   16.50962077614183
H         7.63950384303590   19.92571072440617   17.45296633401481
C         6.71566143163230   19.15274411907760   15.69822227095820
H         6.80089305481805   18.14016199748348   16.05335625865493
C         1.17561811180820   16.70841698104454   12.48124473742330
C         1.00565772288376   16.87499697161304   11.11446953246260
H         1.84441113199834   16.74787766948559   10.44601309753233
C        -0.23865633196916   17.20957883573677   10.60804179101414
H        -0.36502701749975   17.34431754364385    9.54400872715772
C        -1.31560413604664   17.37077450184938   11.46124825750696
H        -2.28586386115391   17.63375139173635   11.06547910774998
C        -1.15232892461324   17.19115071436215   12.82690778240733
H        -1.99446742020720   17.31053485577135   13.49346217093790
C         0.08585595922850   16.85690332122921   13.33760570388038
H         0.21612791624947   16.71303634836733   14.40220697428417
C         2.95131916109297   17.34054522624479   14.60988601441862
C         2.48001319546798   18.64749701654759   14.53067042842971
H         1.92920551705365   18.96188048078156   13.65535958322712
C         2.73178122726498   19.54028345271781   15.55699265343545
H         2.36634523648806   20.55402739320884   15.48746619989396
C         3.45389856558338   19.13987181955823   16.66830044137484
H         3.64684230134291   19.83685015059944   17.47002357870666
C         3.94904725409146   17.84772196685528   16.74120037386919
H         4.52536088483603   17.53822527879665   17.60153663215272
C         3.71694271170724   16.95743468188513   15.70981960772612
H         4.13620669355160   15.95934863003832   15.74841385979917
C         2.23433721556048   14.62195862561204   13.90005662612031
C         1.89666094473198   14.40692032637558   15.23065952839794
H         1.95890243400051   15.21040936819093   15.95065394162507
C         1.46916491275261   13.15603231808495   15.64043610539325
H         1.21591064970829   12.99390318303642   16.67848614683307
C         1.35915249738827   12.11850610628076   14.73076226307545
H         1.03043271101452   11.14397652539104   15.05978923027137
C         1.65919428966270   12.33749880048015   13.39675944421301
H         1.55769431821706   11.53714859138568   12.67924555694201
C         2.09288677016208   13.58213183526268   12.98303527389589
H         2.31912351862675   13.76345735900032   11.94005247983610
C         7.52909005112153   18.12730332338147   11.20759372041691
C         7.26347638984132   19.45514255623685   10.88589759857097
H         6.50966683499255   19.68202847662994   10.14500855750870
C         7.94778624953027   20.47461931824910   11.52327624570515
H         7.74065592912374   21.50259526128457   11.26523320673017
C         8.88908605617417   20.18178835864786   12.49579847558037
H         9.41641189171975   20.97905007441313   12.99792817750546
C         9.14378113454416   18.86290480583460   12.83465508886029
H         9.87008699771451   18.63203283292532   13.60087767063475
C         8.46563272181191   17.83943051202322   12.19904395138788
H         8.65609154205953   16.80935903496777   12.47269277948012
C         7.70265809540036   15.47114281600408   10.10766141550861
C         7.15429579814838   14.23343686413020    9.78129376394389
H         6.07903130407192   14.11606985571946    9.78389954704862
C         7.97074734672408   13.17552284843184    9.42858935240101
H         7.53537030432877   12.21906545069849    9.17910016695589
C         9.34473851780547   13.34554885488251    9.38983789287464
H         9.98698216111043   12.52068018258849    9.11794390910951
C         9.89432692424550   14.58111433406024    9.68868778682466
H        10.96491929605396   14.72172608193145    9.64311084719596
C         9.08106841525028   15.64325661578219   10.04221932712554
H         9.52685855443782   16.60211866929986   10.26584492547138
C         6.22788126095623   17.40425517749896    8.80026094769604
C         4.97037338107815   17.38057159625998    8.21411464662311
H         4.11978611680418   17.01663028262854    8.77069840408398
C         4.80229007756464   17.83070486786111    6.91577951878565
H         3.82009832897627   17.81370777607613    6.46712313897833
C         5.88653416995989   18.30103586582513    6.19709242963530
H         5.75442956879943   18.65397479274319    5.18459055899227
C         7.14652572743072   18.31883387792557    6.77636870189587
H         7.99532731358944   18.68392491068963    6.21594721845179
C         7.32020527055304   17.87029786354839    8.07034789738874
H         8.30284366048760   17.88592098997711    8.52191997253209

