69
CSD_code = HIKTOK | q = 0 | S = 0 | Stoichiometry = C24H36N4S4Zn | MND = 6
Zn       -0.58059722669594   15.60835618070285   10.44638540968977
S        -2.03608381436652   13.57712056195532   10.14830036365332
S         0.84977332473189   13.52374541858489   10.70854544848439
S        -2.05238568317350   17.66055942416724   10.12562418986720
S        -0.29730483535941   16.45867902179572    8.09577683463643
C        -0.58287535522178   12.70702968230688   10.30448846495665
N        -0.57787144473601   11.38477662551093   10.12723585522824
C        -1.78754036842108   10.66223141075932    9.79396548088458
C        -2.03269486531308   10.63238972868129    8.28332550520247
C        -3.29467102790395    9.85116396982720    7.94650082778655
H        -3.45879112998362    9.84183716409976    6.87203665196014
H        -4.15872502403987   10.30807427571466    8.42260488399389
H        -3.21428931509179    8.82206877182569    8.29170606985035
C         0.64605472459973   10.61784645964377   10.21390978666083
C         0.91953158881072   10.14351567065870   11.64295198026265
C         2.19057899391947    9.30881449779399   11.70990068866131
H         2.37763837391730    8.98210479478977   12.72969873430617
H         3.04283682801819    9.89406019088462   11.37361432803126
H         2.10573514852841    8.42814023171819   11.07630115493387
C        -1.50133969036406   17.58243430053340    8.52210968223958
N        -1.99291188798748   18.40944110855767    7.59781499791632
C        -1.56455242798547   18.33958930027480    6.21720858153277
C        -0.34251800589259   19.22295213870122    5.95556989116110
C         0.08077790608294   19.15495239550448    4.49507447504318
C        -3.00806603674379   19.38777864151596    7.92617214952901
C        -4.41732188377515   18.79931122984703    7.82382672403390
C        -5.47488089967597   19.84669402155540    8.14128947425228
H        -6.46961397224648   19.41441620344334    8.06993989143799
H        -5.41120285126705   20.68130934048241    7.44559757904992
H        -5.33657923978243   20.22778290124367    9.15015874581736
N        -0.98833100562287   15.79076929595274   12.58863049288111
N         1.11003518729437   16.75574620820552   11.22618044194282
C        -2.13437612921299   15.45029816289696   13.14876561986905
C        -2.50707247462054   15.88187892894364   14.41158395040293
C        -1.64280981570185   16.71689195617238   15.10127670104546
C        -0.43949179019027   17.06840157053882   14.51487718790973
C        -0.13555950813489   16.57494915526451   13.24718993577440
C         1.11914776117580   16.89816059209600   12.55107050082135
C         2.26650381767456   17.31380021433376   13.22470103205909
C         3.40700177525785   17.59997756623841   12.49476731864816
C         3.37255297379449   17.46734622769108   11.11596182913404
C         2.19575329805676   17.03226610377490   10.52790968289331
H        -1.69231688715746    9.64527162996461   10.18265977546915
H        -2.63246378916030   11.14935855901922   10.28664814268002
H        -2.12888198957841   11.65959157265646    7.92951676044381
H        -1.17129401659242   10.18232638638059    7.78415275857167
H         0.55913576608848    9.76049518623105    9.54198872238456
H         1.47515379487555   11.24648546363613    9.87905022703264
H         1.01828754622666   11.02129427199700   12.28323174296774
H         0.06960266685333    9.55694572447250   12.00004793307859
H        -2.39918727291800   18.65372367611910    5.58573602830396
H        -1.31500032805784   17.30207636346919    5.98085226537174
H        -0.57493718199753   20.25506825617700    6.22898038255256
H         0.47294396292567   18.87933121355634    6.59341779401879
H         0.95001835206050   19.78421244327036    4.32146310889081
H         0.33542045178492   18.13325348668852    4.22477259233199
H        -0.72413351895295   19.49293164258498    3.84538472338311
H        -2.89916598095564   20.23227983907341    7.24113712114227
H        -2.83669590304237   19.73777313188670    8.94717962285346
H        -4.57418422769635   18.40494775224339    6.81710649980261
H        -4.49528413968836   17.96958328445033    8.52750030459716
H        -2.77463182604022   14.81032005068993   12.55705382739584
H        -3.45238643563735   15.58138759626508   14.83393558743568
H        -1.90254102212430   17.09383866033051   16.07956990051994
H         0.23872825730714   17.73500221842141   15.02308499350738
H         2.27659617145530   17.38797451407244   14.30033800123515
H         4.30939476252259   17.91685137874068   12.99662626558539
H         4.23783737902210   17.68305417885722   10.51011211314303
H         2.11392141628334   16.89575987412838    9.45820326184729

