48
CSD_code = HIKTAX | q = 0 | S = 0 | Stoichiometry = C14H24MnN3O6 | MND = 6
Mn       -0.65204008698181    3.85321825799656    5.76948738519562
O        -1.18065671897890    5.48887636307209    5.28181109129015
O        -1.03221141157322    2.82485705980701    4.37816296541482
O        -2.27337912927094    3.18237679166526    6.82953836926394
O        -3.50171161177408    4.05620526383221    5.31123462371465
O        -4.39359536656450    3.02891599130565    6.96264189964604
O         1.31097008099931    4.36357361727166    4.62768692930102
H         2.09406410295315    4.03546892788056    5.08921517092207
N        -0.08031447949811    4.80822946513808    7.54151517476520
N         0.38140352942678    2.43155615788363    6.56131398542957
N        -3.43184631947615    3.42743788126670    6.34982232856102
C        -0.56849518854031    5.93236858662136    8.00410195538774
C        -1.38228833432128    6.76975064389509    7.21003149500682
H        -1.77741193342818    7.66852174816689    7.65280826658887
C        -1.69606157808888    6.48056437402575    5.89176036488103
C         0.89522981240027    1.40483310766333    5.90703274393150
C         0.61974629082023    1.18959615264512    4.54894989558028
H         1.07925533502335    0.34695192151717    4.05734549864496
C        -0.34236260554528    1.91359956060903    3.84132574333182
C         0.76601736051213    3.98120884952749    8.37416849729934
H         0.57458104167201    4.11611765379886    9.44260295307483
H         1.82045155820463    4.22453581601414    8.17389334451219
C         0.49524759375063    2.51706500087539    8.00269260423179
H         1.28054428044615    1.88105160448878    8.41900929507472
H        -0.47260039776376    2.22655761242882    8.42895393520747
C        -0.26117508811647    6.41673808229406    9.39943440737306
H        -0.71247395828310    5.75230275258491   10.13512190489957
H        -0.66584981053120    7.41284555992244    9.54864927435797
H         0.81346863698062    6.44664049499210    9.57335552362220
C        -2.63347535778551    7.35378169243039    5.10144191627193
H        -2.13837029318765    7.72063425732544    4.20399719511731
H        -2.99375470935522    8.18919641963330    5.69222409170110
H        -3.47036302131231    6.73047476929064    4.78839019228048
C         1.77000135100140    0.38081730795653    6.59247863924335
H         2.62075783044136    0.85127988034395    7.08457326433810
H         2.14740916838979   -0.33030667831280    5.86399115927115
H         1.19761293670129   -0.16772783970969    7.33908079065809
C        -0.64853837335378    1.53881349632788    2.40911718176190
H        -1.43460440891234    2.18618228861240    2.02959832169009
H        -0.97805507500652    0.50337940309583    2.35053389240601
H         0.24282743204471    1.65053362436461    1.79532226375585
C         1.61431669717411    5.64228734379488    4.08896713766381
H         0.69545266743317    5.97863003003936    3.60508914819944
H         2.40012742568781    5.53136762831239    3.32865409296587
C         2.04491394975429    6.63146456219332    5.16263268634568
H         1.27339903233059    6.69281511023876    5.92893714342498
H         2.18920006014492    7.61647499752361    4.72818205664648
H         2.97943708336407    6.31613640734669    5.62552119975493

