55
CSD_code = HIKYAC | q = 0 | S = 0 | Stoichiometry = C20H31O2PPd | MND = 4
Pd        8.08124143611340    1.38209314926665    3.43585187780295
P         6.48299369893485    2.75613270624916    4.05558776877460
O         8.15680639333178    0.04257966771291    5.16265315014773
O         9.61707173907143    0.20894393836491    2.61804048127608
C         8.83386875958336   -1.71895162876521    6.59060964484979
C         8.94262067502894   -0.93207728899010    5.29470877628777
C         9.90219669833965   -1.36951870160269    4.38018216664376
C        10.17164171475598   -0.79176481103391    3.13401348864864
C        11.26628566117008   -1.45380200875547    2.31271096729017
C         8.17161076571661    2.54500729551574    1.77062821940568
C         7.23302107248948    3.70411709826209    1.66771569884992
C         7.23283276157913    4.53968043501078    0.55372383780116
C         6.36160577077758    5.60996370275564    0.47433660497522
C         5.47349367609474    5.86508634176207    1.50780412111014
C         5.45597010022937    5.04636361375792    2.62247100069809
C         6.33175921973568    3.96835986873126    2.70489852537042
C         4.82473692202767    1.86012383397314    4.10977475551684
C         4.87301125813100    0.80716570432897    5.21584231495736
C         3.58774744821355    2.73924611564548    4.25217720463188
C         4.81829854961060    1.14238132292942    2.75333757451107
C         7.00465483817263    3.74833587993455    5.57110589838477
C         7.05854415272712    2.81158172687665    6.77621697483861
C         6.17424365462856    4.98841922946716    5.88303682032640
C         8.43627681636265    4.15359403703654    5.19372178401087
H         8.05357652398492   -1.29230204480247    7.21669155149038
H         9.78105906488528   -1.68819229970062    7.12486041499165
H         8.59603557504286   -2.75867579743495    6.37677205557867
H        10.49037487280496   -2.23135288536313    4.65873432989430
H        11.36981309981915   -0.94019006103775    1.36007468541795
H        11.02118279358348   -2.49870263285654    2.13602774818108
H        12.21127601728445   -1.40971212523124    2.85001238121448
H         9.21049475573207    2.91370612406663    1.71675523462522
H         8.02202765039769    1.87601627132128    0.90652545419608
H         7.92321698084014    4.34557824077186   -0.25525948771181
H         6.37218511632698    6.25049125922594   -0.39566885769823
H         4.79412435315611    6.70250578690574    1.44359305078724
H         4.75995404186077    5.25341638300130    3.42045593690902
H         5.84118609367830    0.30353816460042    5.20919778024179
H         4.09531680567717    0.06181508366237    5.05213844413874
H         4.71123395455163    1.24984544821270    6.19489185916287
H         3.61927275582354    3.32047907871513    5.17107325121606
H         2.69926687002968    2.10896960981040    4.28523998040827
H         3.48883976547511    3.41491616574270    3.40674289666768
H         5.72744824074991    0.52491448970718    2.65369688767815
H         4.79512725185007    1.86041924766397    1.93319942211570
H         3.94722897330585    0.49427855858934    2.66933516634489
H         6.06577076193365    2.63001895694626    7.18013868819123
H         7.66558273500810    3.25499950259302    7.56487519551962
H         7.50716327468244    1.85994270185489    6.48792800735556
H         5.12982903241806    4.73623781323484    6.05158541206045
H         6.23859432507559    5.71351866001539    5.07588791204146
H         6.55584551248320    5.45816399129896    6.78937487413600
H         9.03335836662731    3.25475943404044    4.96273208270274
H         8.91182354167917    4.68461900084318    6.01703824840777
H         8.43485711040447    4.80361664515801    4.31759973662979

