56
CSD_code = HILDIQ | q = 0 | S = 0 | Stoichiometry = C25H24Br2N4Ni | MND = 5
Br        5.71951138907859    7.37382935477172    3.04442186859167
N         8.74642330173611    6.76667006289092    1.41948062935029
Ni        7.89414089789439    7.61210451719854    3.28584588958792
N         9.68799494977594    7.97610306662842    3.51659736263391
Br        8.12688444263411    5.70755798958265    4.66064141517583
C        10.01481868881204    6.48988317924877    1.73057567266455
N        10.18289839017691    4.72694700174663    0.13970882445677
C        10.59256250770993    7.31136818993439    2.78910910944425
C         8.18390871482747    6.06141571549967    0.40984452588013
N         7.81869466948204    9.33029815691239    4.59460740900985
C        10.07429373168541    8.82056715502183    4.48559119116640
C         8.91891173675807    5.01531754675790   -0.22860800411045
C         6.88901609007940    6.36450397914232   -0.05400515602514
H         6.34298603494473    7.16966226353582    0.41038513058530
C         8.31873598043872    4.27873748894555   -1.26596302283471
H         8.89332808689442    3.48513580807586   -1.71667642711861
C         6.64317213535471    9.94835521804787    5.02956628293478
C        12.36632008401237    8.27663560999767    4.06868158160546
H        13.41617175394400    8.38317661145813    4.29389224655126
C         8.97162557893988    9.53566382405076    5.12388326214455
C         7.04728236260379    4.57984460058017   -1.67024184309855
H         6.58158397637417    4.01221036125394   -2.46180524060857
C         6.03049672401268   10.83017725902379    4.12154837516640
C        11.95490419521488    7.44509905850661    3.04009656636091
H        12.67451047431508    6.91375780642052    2.43950890806187
C         6.33752044579219    5.63228660857861   -1.06873048299054
H         5.34113302994916    5.86378873930060   -1.41232558789242
C        10.71525117005063    5.44982828842135    1.08083205782752
H        11.72653301937681    5.19888849268730    1.36803066417859
C        11.42134248964507    8.97856194883857    4.79845676198683
H        11.72139712713222    9.63745396877681    5.59648337032004
C         6.05918397654814    9.65280826360574    6.26657116664084
C         9.23984810784222   10.46936557694911    6.26018955691782
H         8.32783217545159   10.98669400012901    6.54852322727438
H         9.98898532818318   11.20434392647391    5.96814119770431
H         9.61775293656863    9.91795753136820    7.12034422956727
C         4.89003411556518   10.31791670186922    6.60995911904414
H         4.43555705297173   10.11110177390347    7.56739004928245
C         6.58401951027525    8.57036345843106    7.16772751586828
H         7.57420551001024    8.23725176948503    6.85509061008543
H         6.65989762607412    8.94999810197606    8.19072524084836
C         4.86411688223969   11.46665592475198    4.50539461680365
H         4.37921997470576   12.15490172067538    3.83297431932745
C         4.30583459514280   11.22586624199717    5.74973744167941
H         3.39958989804623   11.73653537660719    6.03883938384476
C         6.69257006845514   11.04511590330218    2.78687966815646
H         7.60997558347372   11.62884964153532    2.93144847562321
H         7.00331735810252   10.06011508605900    2.40539311142713
C         5.82226725300033   11.71816157909942    1.73569304306869
H         6.34413524165143   11.73069365910655    0.78091129665358
H         5.59686270664269   12.74658328109206    2.00850217513214
H         4.89154206279207   11.17030039122224    1.61140678746130
C         5.64465271923001    7.36257088081948    7.13646905281685
H         6.04252691086081    6.56456413436277    7.75785907730734
H         5.55052006562387    6.98833613671022    6.12110958246852
H         4.65339816089270    7.63011906663331    7.49288671399382

