85
CSD_code = HILDEO | q = 0 | S = 0 | Stoichiometry = C33H45Cl2N3OZr | MND = 6
Zr        3.46414581964887    0.13624855793647    2.33898188116401
Cl        5.35863260119290   -1.24430994554797    1.88305148000713
Cl        1.41747708105644    1.27198673890374    1.83827264355602
C         6.49691924554384    3.42371594416691    1.95988353381672
H         6.26290420241978    3.80839803496122    0.96952633047933
H         7.50718991118687    3.01362212050337    1.94390226798540
H         6.47776652852471    4.24677887882789    2.67266525545943
C         5.51401405035536    2.35718839215265    2.35397151468453
C         5.48538572030342    1.83191150986253    3.67744718623344
C         6.38997479904340    2.14918552975408    4.67728164024706
H         7.19320641231475    2.84179310970084    4.48039553852174
C         6.28446050804147    1.55072027379115    5.93459929078126
H         6.98278894371779    1.80677164627512    6.71584976705965
C         5.31512254568328    0.58693038626434    6.14596900841989
H         5.26765173841519    0.06476581989388    7.08940089818334
C         4.41920930508321    0.25248232425083    5.13060665728074
C         3.46738042221504   -0.78030168159756    5.17763727670541
C         3.23934216056640   -1.60765086206259    6.41275852542894
H         2.34539942639115   -2.21779235641717    6.30068184566914
H         3.12353054068994   -0.96833813176945    7.28703828801637
H         4.08638648557020   -2.27230815810177    6.58935624250903
N         4.59904493646379    1.87169799220011    1.51698395116001
N         4.43024641709053    0.95661584174812    3.91403676347216
N         2.76269347910883   -0.96577450832974    4.03834570068490
C         4.41178419737606    2.45853345672874    0.24670749951110
C         3.46445779550237    3.48632490234715    0.11151075143436
C         3.18809990229570    3.98109241226527   -1.15574015195551
H         2.43618084831985    4.74855740194324   -1.26632499755796
C         3.86906657707544    3.51684185337233   -2.26413763695866
H         3.64618687954147    3.91296969937832   -3.24375484218326
C         4.86274311927144    2.56560362138885   -2.11274311241313
H         5.42467370888788    2.24754115080769   -2.97696228315565
C         5.15151571619564    2.02419314512462   -0.86845142506682
C         2.79065460021282    4.10314797663741    1.30835613035457
H         2.97629293824881    3.50045664613478    2.20352565970842
H         1.71203123904412    4.12675990422580    1.13949086969983
C         3.29640165120824    5.52730825084267    1.54648344569921
H         4.36717734606926    5.52636825826731    1.73642021062784
H         2.79437869958481    5.96316857077876    2.40708532997843
H         3.10463844042531    6.15598369279705    0.67982512339849
C         6.27564197833321    1.03747122294823   -0.67789239171549
H         6.06038232484331    0.40800099742223    0.19106745344696
H         7.18535805862270    1.59929511208948   -0.43900011441690
C         6.56368150969713    0.14470302297472   -1.88252812108773
H         5.65239623418710   -0.32204330484716   -2.25075242700313
H         7.25339903981235   -0.64268270513911   -1.58900412211826
H         7.01951977051058    0.70481037989527   -2.69587383928272
C         1.75982613125853   -1.95022001804215    3.97808711711424
C         0.41945298871779   -1.56885809246688    4.17170441152206
C        -0.58097338202278   -2.52131468737916    4.03748843984400
H        -1.61102034624043   -2.22336984158498    4.17019020380799
C        -0.27316573002163   -3.83925323414119    3.75249455543236
H        -1.06035300803102   -4.57255947828201    3.65948388316648
C         1.04910780330839   -4.21920349823717    3.61141955091944
H         1.29110987468992   -5.25630123444754    3.42798260849489
C         2.07874984408088   -3.29423187169466    3.71843675192256
C         0.06716955776439   -0.15843346525104    4.56238025243856
H        -0.76955931951506    0.18752658777872    3.95093883161398
H         0.91985811507574    0.50537314491212    4.37879292363941
C        -0.32076748214685   -0.08015161139027    6.04016510169549
H        -1.15921850388075   -0.73998396324916    6.25373993841370
H        -0.60508281418511    0.93679569744959    6.29950671552030
H         0.51625280029542   -0.37448477132688    6.66862511058787
C         3.50854916752986   -3.74756092683947    3.57895612319849
H         3.69841896651973   -4.53660073491700    4.31331668243639
H         4.18939147191925   -2.91760090628625    3.78622695262740
C         3.81691072114187   -4.28199454184742    2.18005748193640
H         3.15926041313947   -5.10929736108552    1.91891183898653
H         4.84576780679228   -4.63030614936426    2.13816778706049
H         3.70632820007581   -3.48468971216143    1.44754212138068
O         2.51219212857002   -1.28709599179429    0.76072353158972
C         1.11018327358886   -1.60776827742615    0.70320157439771
H         0.57767697116416   -0.84095275763468    0.13059733451039
H         0.76267878173017   -1.55829493528665    1.73869313755005
C         0.82481236354773   -2.99567533417317    0.13932299650386
H         1.02405743643500   -3.05106947159212   -0.92819061042586
H        -0.22388161254652   -3.22757340084520    0.30147658111268
H         1.42495108377634   -3.74030686116175    0.65444570674222
C         3.10833116273096   -1.12227738210070   -0.53516540540772
H         3.01985101706178   -2.06117564801652   -1.09829681277661
H         4.17161228773750   -0.94187689879631   -0.33214342773435
C         2.51196179371267    0.03844003835456   -1.32852571077445
H         1.56170121170557   -0.23156026232810   -1.78438182786356
H         3.19421146011038    0.33114427758173   -2.12179990881589
H         2.35761150851198    0.89782044933648   -0.67212303882533

