62
CSD_code = HILDOW | q = 0 | S = 0 | Stoichiometry = C27H28Br2N4Ni | MND = 5
Ni        7.40503597023329    0.48714151059972   15.66089143176436
N         7.89850877728629    1.56713308420944   17.06963973204084
Br        9.64211279756647   -0.24379676345497   15.45945039190027
N         7.60119897909061    2.44343695179908   14.64831513499481
Br        6.65108537796787   -0.85674622309214   14.08938836632208
C         8.48012534733246    2.74534117104366   16.81758279993051
C         7.77022585943169    1.12124995851979   18.32904875603030
N         6.55317648781144   -0.57892276354654   17.33516397151819
C         8.29615644600265    1.84271648332596   19.39703386555094
H         8.21437580698469    1.46467606499895   20.40275444358238
C         8.46436171537441    3.12196811719028   15.40800334927292
C         7.03436744280129   -0.13574276124216   18.44118229909078
C         9.00788990867266    3.52063462716541   17.84546164922927
H         9.46548257736129    4.47208704840095   17.63029819291160
N         9.27286270421535    4.42914499921650   13.59050888741938
C         9.30495978957831    4.11070625941031   14.85127781949271
H        10.03484188296376    4.62449011499939   15.46081195471672
C         5.79814300685972   -1.74961883207061   17.22208693907701
C         8.92682412136510    3.04996572079304   19.14585696578229
H         9.34389621715779    3.62470560929258   19.95826929484041
C         7.85123235626539   -3.20238235331698   17.61723903854806
H         8.32443049939892   -2.22917551423160   17.77904739601415
C         8.37474984319940    3.79648942219970   12.80946404286530
C         6.36773406603694   -3.01867958012349   17.40155253576159
C         5.54386056607213   -4.12473086917155   17.25149417142818
H         5.95813495469351   -5.11240326964874   17.37984719648457
C         7.50850472019368    2.79355743157330   13.34388587008685
C         4.46141649580250   -1.59812708526735   16.81693415894901
C         6.53990538090919    2.21056550611335   12.50409817619239
H         5.86747868182677    1.47494520102184   12.91511193508699
C         8.28238288568018    4.13770978438898   11.44791123127971
H         8.96119111055476    4.88518564744323   11.06906746117660
C         6.83419424684908   -0.77356468449882   19.77795456421332
H         6.15548001940760   -1.61929443303764   19.69217323429049
H         6.41652152850915   -0.05064909521751   20.47793687391440
H         7.78661392467057   -1.12309830308587   20.17480650358018
C         3.67486179371184   -2.73066687943381   16.69988204650589
H         2.63952491839138   -2.63812007262350   16.41522534782143
C         7.35209586489795    3.52699888684457   10.65245622451337
H         7.28320810711602    3.78220677558920    9.60566211565216
C         6.47228721276549    2.57116664912769   11.18674770832933
H         5.73374051241420    2.11400812390731   10.54646719914778
C         3.91991374182109   -0.21170853716587   16.55916736179231
H         4.76242096302853    0.42262802894631   16.23568629873377
C         4.20731997678242   -3.98597081443734   16.93217552099985
H         3.58266150589783   -4.86144298491436   16.83658271268859
C         2.87912015610768   -0.18359442912961   15.44270392386665
H         3.25996863979979   -0.70333585278181   14.56679618172419
H         2.66269852251004    0.84708748349900   15.16819620754475
H         1.94725394086369   -0.64811321413501   15.75533141148600
C         8.15610752830090   -4.08724432317602   18.82720981481542
H         9.22883566655828   -4.10567677255411   19.00596719355809
H         7.82631397677676   -5.10834083279804   18.65480468383060
H         7.66176750990311   -3.71716290645378   19.72392023910334
C         8.46541536947824   -3.79590118240894   16.34582720242974
H         9.54598110987184   -3.85567621984337   16.44819120194765
H         8.24004187371104   -3.16741093953943   15.48875572277747
H         8.07194904785226   -4.79048863266054   16.15172075222192
C         3.35013509731415    0.38051235167257   17.85129687930100
H         4.10924849357140    0.42285205595477   18.63107539541701
H         2.52533343230950   -0.23155698315022   18.21133171069115
H         2.98073254212240    1.38903303889659   17.67576830777572

