34
CSD_code = HILFEP | q = 0 | S = 0 | Stoichiometry = C12H15Cl2O4Ta | MND = 6
C        10.69465754428733    1.14428086580112    3.83583307709425
C        11.44531354088265    2.26297541801697    4.20336747483120
H        11.23043503415805    3.20969545592180    3.73671038174577
C        12.44628552582087    2.22506321813188    5.18240089345330
C        13.18243617910687    3.50186547429557    5.49504150951152
H        14.06577205891976    3.28122930589391    6.08807080828130
H        12.52598114948582    4.15349635569561    6.06989666195025
H        13.46456878701114    4.01903997486997    4.58210155937432
C        13.78473830326328   -1.16062841386170    8.43786874732873
H        14.79133028982002   -1.30736229423978    8.02618274033103
H        13.52214455428782   -2.02081358821225    9.06641800671732
H        13.77685389582392   -0.25029304904643    9.05008922436221
C        10.20567491089916   -3.40378902268663    5.71664296292747
H        10.50798294888580   -4.14065038588173    6.47186106248984
H        10.38316442381198   -3.81791162220898    4.71606853381838
H         9.13546250438224   -3.18980360393294    5.83160724580667
C         9.62672752858164    1.27010013329199    2.81931528716853
C         8.52116924941836    0.42603766930411    2.92392089044843
H         8.48515316702683   -0.27810761792589    3.74254362611718
C         7.48891784323098    0.50848078493850    2.00963487477478
H         6.63144388971422   -0.14081345477941    2.10452920131767
C         7.55584323566735    1.42263716641600    0.97028925425876
H         6.75146580225359    1.48630024010779    0.25264427198929
C         8.65991459506986    2.25149766499438    0.84805782087213
H         8.71795719862952    2.95415751594327    0.03008412918345
C         9.69025326391546    2.18193491421354    1.76737983855607
H        10.55690077461587    2.81379756485112    1.65040643002405
O        10.85999976838429   -0.00966831983253    4.35866110106537
O        12.76511711964911    1.18800365049178    5.83413428640718
O        12.88625725225794   -1.03344625051059    7.40187281816727
O        10.93002545642730   -2.24216612199980    5.86895476396194
Cl       10.21971023044492    0.49802274155056    7.15787260191984
Cl       13.51167460054028   -1.32975990535915    4.41758453461816
Ta       11.86426737335995   -0.73080246426606    5.97955337912455

