103
CSD_code = HILGIT | q = 0 | S = 0 | Stoichiometry = C39H42B2MoN12OS6 | MND = 7
Mo        7.99780676780067    7.72293651544128    6.43740053756478
S         9.77129078400162    9.42069940369287    5.83129883991113
S         6.55008536720296    9.54733430670921    7.65019990932697
S         6.82639336556965    8.55377338729641    4.14446593200532
S         5.88819803771368    6.49831655508807    6.57507217494000
S         8.88141123913552    3.82911639656979   11.17870067245362
S         3.78033068784391    3.48998801346897    7.25873146656478
O         9.30883383588940    5.62279504814802    4.63151457632140
N         8.29581362234843   11.67007543439739    6.41643492299750
N         9.67609944332369   11.02417763973900    7.98903887960983
N         5.99209070636819   11.14940536620924    5.49604589549903
N         4.32986061759487    9.90639899948229    6.20158239618269
N         8.00243354279326   11.03917674737550    3.98144779048371
N         8.70018831679326    9.55035349487944    2.53251602241068
N         6.79871459194281    4.05617317095489    7.30869267863277
N         6.56573063729699    4.28242153955333    5.14450656381755
N         6.79443559115366    3.07267564642128    9.61459413211248
N         7.41924396058203    1.58966797316977   11.11062169492997
N         5.23329969994124    4.94217773286835    9.05290990274408
N         3.10984412825602    5.48158915722359    8.90568035124666
C         8.77295411824970    7.31456946141417    8.31333979901339
C         9.39563790481291    6.54420496212970    7.44759241995513
C         8.82919286088083    6.43390761381808    5.29920778840845
C         8.88189331577864    7.53809001324815    9.73076744365926
C         7.91988417631984    8.26893086512080   10.43138130417660
C         8.02976464745104    8.43982580544122   11.79773411889649
C         9.10007008002035    7.89096464220773   12.48617542562895
C        10.06317149499692    7.16764010953153   11.80073112077812
C         9.95911867336113    6.98759380180019   10.43675141767520
C        10.46819481720856    5.59653855090123    7.32784075346163
C        11.58895577683741    5.92342367276621    6.55932730791278
C        12.64020635852902    5.03441215629495    6.45094981879250
C        12.58256838745232    3.80557803405712    7.08880602668599
C        11.47140613233255    3.47397424824720    7.84722423181104
C        10.41864929495648    4.35925301706034    7.97265934727274
C         9.20006655155803   10.74107256854095    6.76053208541650
C         8.18354956069014   12.53630128588100    7.46979091786106
C         9.03385642269090   12.14181890644729    8.44555166785088
C        10.66080448191994   10.27003648174674    8.71198569202349
C         5.63430923700329   10.20327259458320    6.38643401561118
C         4.89333696877086   11.41408634164145    4.71890737631064
C         3.86666535713968   10.64777638768282    5.14869858707446
C         3.57989285278121    8.92334130458370    6.92931788410168
C         7.87255031126866    9.76189944932458    3.57757941626777
C         8.95093586087308   11.62246889565123    3.18370933449047
C         9.38615181631586   10.70726293339322    2.28750323582230
C         8.86927776669041    8.28424545533945    1.87941630372919
C         6.43089080063994    4.88968856398161    6.33584246088551
C         7.20143988473427    2.89766488672056    6.71835640274578
C         7.05885461395050    3.02907017245531    5.37566603865516
C         6.20204341148221    4.82679546044023    3.86805517534057
C         7.67759345414307    2.83366685901116   10.61584238609384
C         5.97619212182673    1.97182853197346    9.50149016221570
C         6.35667505218921    1.05698812746994   10.41623856638608
C         8.13542127337961    0.96592303420393   12.18200952531193
C         4.07138215745720    4.64458419830197    8.42580591181934
C         4.98741229248410    5.97239165075559    9.92426717825082
C         3.68392992963697    6.31046592644498    9.84059821343881
C         1.74047169877401    5.48959316415472    8.48945103568422
B         7.36612483497772   11.76774929039071    5.18261579243072
B         6.64188380187879    4.36628639029361    8.82690733998631
H         7.22475233076603   12.91568914782029    4.90530105305300
H         7.44499500534128    5.17805585376430    9.15265557682341
H         7.07922800430193    8.68748098693275    9.89814767982284
H         7.27145935906171    8.99653853237295   12.33051045059587
H         9.17740563839394    8.01768119089970   13.55623170741825
H        10.88855145477139    6.72242114238234   12.33506816402569
H        10.70050706352064    6.40953589145440    9.90616580107525
H        11.62421610686846    6.88653183720358    6.06334013160791
H        13.50651387963105    5.29904680455482    5.86164928687215
H        13.40373922140548    3.10983143594170    6.99637467548663
H        11.42513211160323    2.52181903896127    8.35453900578608
H         9.56202427283621    4.11240582974791    8.57951812430228
H         7.49905214617509   13.35737574842620    7.43648422426111
H         9.23031902344469   12.55000311286902    9.41474774106277
H        10.28907011791358   10.03473256054986    9.70959739403504
H        11.58835848766633   10.83965683845220    8.79312240038900
H        10.85810503834351    9.33936864902505    8.17597949770628
H         4.94128430811474   12.12635785310285    3.92229869039225
H         2.85796118741231   10.56654041336061    4.80097414865840
H         2.61705873782153    9.33966013727564    7.22615431716777
H         4.14880093963252    8.63391913589856    7.81387958255574
H         3.42684134402376    8.03398641114450    6.31365976367278
H         9.23608759774527   12.64366720332109    3.32432464514484
H        10.11570002875950   10.78252824871226    1.50836185732456
H         9.60151175978384    8.38667028752857    1.08258921359242
H         9.21343330151674    7.54086604493987    2.60302231288999
H         7.91617471316379    7.94649683713841    1.46937953539949
H         7.55027026281722    2.06629647370597    7.29404774832627
H         7.25937188351902    2.34505410624739    4.57790637421735
H         6.96600063769727    4.57734051331074    3.13251650413483
H         6.11733403340704    5.91213232535377    3.95163908038138
H         5.23998924860899    4.41923826675849    3.55029275341232
H         5.18928436093528    1.94192488574937    8.77493323562980
H         5.97254467379555    0.08242237167244   10.63661970633345
H         7.47155742514626    0.76706904008292   13.02611717516750
H         8.92126737718419    1.65624928082331   12.49251533016540
H         8.58367052428271    0.02711071350915   11.84976591237779
H         5.77380301696441    6.37624031197926   10.52780495686105
H         3.11389985826293    7.05469062205155   10.35772565748214
H         1.47600673165193    6.45607391367874    8.05457089023396
H         1.08017549573313    5.28253594233311    9.33431668163582
H         1.62195579201969    4.70791571451571    7.73733464301744

