55
CSD_code = HILGUF | q = 1 | S = 0 | Stoichiometry = C20H26MnN2O6(1+) | MND = 6
Mn        1.64483097700948    6.78527205063183    1.99110904786882
O         0.91720243670480    5.38740268020997    1.17254770657262
C         1.15366724667355    4.11714019447400    1.29765997824670
C         0.12357927826698    3.16626393029264    1.02424501581782
C         0.40047481226266    1.81684559030455    1.09835519443774
H        -0.37176650072108    1.08993862872459    0.90653586940239
C         1.68691587572897    1.36842376488410    1.40793155797839
H         1.87499372494919    0.30768368151956    1.44663864326299
C         2.69949159392084    2.25992976994569    1.64874004012562
H         3.69473137355358    1.90991506804867    1.87417485222926
C         2.45512648224664    3.64458103687917    1.61449895577312
C         3.52810310154978    4.57158490085177    1.80098070180664
H         4.51570458439453    4.11999558232877    1.84859946284997
O        -1.08078879990174    3.71955114126804    0.73406513740448
C        -2.16765723684388    2.86223289226711    0.46485017328899
H        -3.01262954243494    3.51664229512844    0.25969700009833
H        -2.40025327947857    2.22890690522517    1.32602020399250
H        -1.97406157858211    2.23420403510221   -0.40938411402020
N         3.39962225210753    5.85394074517850    1.87018661615168
C         4.58833079150513    6.70699007831220    1.94708226947263
C         4.16563504753750    7.87162298370458    2.86911260773570
H         4.19079414414059    7.52220522273372    3.90823028614159
H         4.85102109581738    8.71878786894271    2.76075331022725
C         4.86975615047198    7.23702519154044    0.53454330427225
H         3.99232594558490    7.75565648449920    0.15037941853311
H         5.10703112463011    6.41171514807514   -0.13214509570261
H         5.71274780768794    7.92184364614357    0.55208492409898
C         5.83873146340344    6.03926290250323    2.52275459711411
H         6.28847082388921    5.35167566972660    1.81173027348113
H         5.60874959396453    5.50929060917949    3.44398549723847
H         6.57506398414440    6.80670359039832    2.74529593959581
N         2.80604020807348    8.23627952928167    2.54801148808736
O         0.26147818040695    7.78485754960353    2.48920488402707
C         0.06585572084994    9.06022909989118    2.35172816429378
C        -1.26494360772367    9.57682046273712    2.28917463770345
C        -1.46819107298588   10.93798480329988    2.19761465411171
H        -2.46717260843311   11.33750403060740    2.13496218591512
C        -0.38690377764693   11.82318864406669    2.19729385240538
H        -0.57954420744312   12.88201390966062    2.13543783272035
C         0.89878034166308   11.35768115121918    2.28557021971510
H         1.73096965155839   12.04373796240445    2.30093036952256
C         1.15466511959582    9.97642779280472    2.35143797795092
C         2.48470799896645    9.48817898334367    2.52898872469726
H         3.25246162357138   10.24047690992570    2.71123632366708
O        -2.23129808088765    8.62434510393602    2.29611128073254
C        -3.57923063784154    9.03295182336629    2.22668352519725
H        -4.16472154529605    8.11603134256418    2.25461581895577
H        -3.78737992158463    9.56786428665068    1.29534082739075
H        -3.85003681559721    9.66291687022481    3.07868413146305
O         1.53927771949953    7.67170919246557   -0.08273021076299
H         0.84622819171421    8.34571666772044   -0.09776558439460
H         1.25317754095264    6.97479374432679   -0.69110260681933
O         1.37282692746841    5.85569053533860    4.00303290042268
H         0.65618656968519    6.32448710940093    4.45469572863306
H         1.08002170724663    4.93967820614080    3.90898349886982

