54
CSD_code = HILHUG | q = 0 | S = 0 | Stoichiometry = C27H20Br2N4Ni | MND = 5
Br       10.10257583359035   -0.70179683581288    2.72943084779970
Ni        8.15345545585029   -1.57790093185697    3.76963518787688
Br        8.01920652452468   -3.98670740340594    3.91062708205987
N         7.14525634123111   -1.54485914911452    2.19540814543814
N         6.63630217136336   -0.59013596513801    4.35158182584449
N         8.74364551732461   -1.31675399063254    5.63758537627522
C         5.55141154132424    0.42788849313885    6.22344630027691
N         5.28815167395539   -1.02597541566725    1.07708152800874
C         5.94878212581433   -0.94289064758257    2.26195819962298
C         5.60107340071873   -0.36994174655541    3.54088058969615
C         7.27106820133086   -2.05233427111520    0.93587009732859
C         6.63444172723003   -0.24019763016233    5.62957461781166
C         3.95452820905161   -0.56012221113076    0.80985310895262
H         3.76720131724944   -0.69466505083934   -0.26004669274396
H         3.89473665330880    0.51377992532404    1.02413637681599
C         6.09565365475782   -1.73596779106447    0.21854251363642
C         7.80273286298412   -0.62680898201261    6.33575721481960
C         5.93354581207355   -2.13911438767096   -1.09971832086345
H         5.03950236808954   -1.90991133964553   -1.65962810453007
C         4.46820549938656    0.28791446301318    4.05092765893401
H         3.60921323685066    0.47097701187144    3.42684608084938
C         4.45551515493662    0.68628873530307    5.37201124430649
H         3.58872267172653    1.19500501343326    5.76778704759079
C         7.88962324429225   -0.29971863613964    7.69814097549274
C         2.90546751136681   -1.30689167788930    1.60486259290273
C         8.12772740802186   -3.17128738086231   -0.95897020018247
H         8.90325191536735   -3.73719298280464   -1.45023678870917
C         5.68074230278933    0.74965058420032    7.60132882154790
H         4.87207243733353    1.27102448424199    8.09174014443514
C         6.96469003618740   -2.85639651254504   -1.66931302946348
H         6.87004879029532   -3.18688446088117   -2.69254751278626
C        10.86854371088759   -2.49306508654666    5.57137757227312
H        11.35654826382934   -1.86003908022095    4.82728925633087
H        10.40714015808429   -3.31472545001793    5.02036787445641
H        11.61444324490203   -2.88502081598211    6.25563648638637
C        10.00166088877622   -1.40894735941301    7.65548852633924
H        10.90555897070144   -1.74466946261214    8.13930886374876
C         8.30264552131824   -2.77931550551875    0.34787713666931
H         9.19230016544974   -3.01747225619719    0.90895565931147
C         9.83212073206754   -1.71689867713591    6.28893769900777
C         6.80120621240767    0.40262636827671    8.29443818231197
H         6.88569440343951    0.65174635078086    9.34229366427600
C         3.12815573278891   -2.60131278156343    2.05359359267895
H         4.05927609221145   -3.10431388874555    1.83630500146536
C         9.05729882651406   -0.71229601569778    8.36299575177306
H         9.19546684326748   -0.48743010519534    9.41019981019855
C         0.95337030050482   -2.63907126529133    3.06801246383295
H         0.19734599948499   -3.15507779797294    3.64006938708010
C         2.15660474077700   -3.26171432223751    2.78588369143570
H         2.34525629191699   -4.26543819509733    3.13460210893548
C         0.72066757856013   -1.35232702784738    2.61179489801134
H        -0.21759042854081   -0.86195699833980    2.82431777507982
C         1.69320338240994   -0.68853403812765    1.88624823637445
H         1.51083076789951    0.31718010070957    1.53245343300733

