63
CSD_code = HILKOC | q = 0 | S = 0 | Stoichiometry = C31H24MoNO5P | MND = 6
C         0.33854498019615    1.74111465424688   -0.70439593971020
H         0.68549310670773    0.83514450357009   -1.20883861334485
C         2.05480081282368    1.53939193678135    0.88393739712311
C         2.94299955371798    0.68943195762612    0.22626360833867
H         2.81796850556553    0.47832972569821   -0.82631182768380
C         4.00349282293003    0.14075476470430    0.92006867899521
H         4.69676246067398   -0.51174015764363    0.41147562102257
C         4.18179922588751    0.42633645053592    2.26956014149281
H         5.01230319944331   -0.01458976711572    2.80046840201824
C         3.32200361590791    1.27575672229359    2.93611283709236
H         3.46076877361212    1.51417646109249    3.97980936442501
C         2.25227818265091    1.86520077500162    2.25007371594938
C        -0.82012257355781    2.36696607160230   -1.26134986514898
C        -1.46360045351561    1.77866356963808   -2.36036185031926
H        -1.06759297301089    0.85464500683034   -2.75744463652632
C        -2.58052549907817    2.34901031940315   -2.92332489923788
H        -3.06643931087107    1.87871885110762   -3.76427242636263
C        -3.08892422783639    3.53419028483133   -2.39706349968511
H        -3.97089776756289    3.97965342708363   -2.83304069378098
C        -2.47491806494916    4.14297635056107   -1.32516670744218
H        -2.85716535762490    5.06227586204953   -0.90276991575318
C        -1.33403435635180    3.58043396724142   -0.73306062685758
C         1.37202805236354    4.82257035590972   -1.60060775685154
C         0.42067261325822    5.02081184328874   -2.59033056011803
H        -0.36024460577707    5.75365773878938   -2.45122857944297
C         0.47332388837780    4.26955407593556   -3.75292498972678
H        -0.27053030416209    4.41980251702486   -4.52081396694740
C         1.47155037148370    3.32645968166945   -3.92895079143598
H         1.50641705267617    2.74253991648733   -4.83657617109938
C         2.42980206476754    3.13503014802395   -2.94518863723840
H         3.21515582281118    2.40695028156230   -3.08687246816697
C         2.38147285540743    3.88389662774166   -1.78388795608342
H         3.12086641707220    3.75005690616648   -1.00289457522130
C         2.91952403487442    6.75667994003500   -0.15925756690512
C         3.50036861619708    7.17296762622267    1.03197336958923
H         3.06799148741760    6.83703095656623    1.96414552487533
C         4.61859108270766    7.98637912068901    1.01098933542912
H         5.07224385406388    8.30743972828990    1.93677499114652
C         5.15603298838915    8.38801514473518   -0.20169773795141
H         6.02909987468730    9.02330533878546   -0.22126456073319
C         4.57798628537442    7.97357875802624   -1.39059416563661
H         5.00106533048719    8.28457901640911   -2.33468082882307
C         3.45882246722768    7.15945283053938   -1.37270499498675
H         3.01315066178960    6.82718463599497   -2.30062674220538
C         0.09068241707810    6.94310426291008    0.08693977266151
C        -0.00439858136709    7.89676616771073   -0.92253319614009
H         0.69788524680855    7.88173878752887   -1.74472064358824
C        -0.98779566468186    8.86677803928506   -0.86423601901407
H        -1.06689016500585    9.60245355517454   -1.65160213381674
C        -1.86797206821828    8.89494939571137    0.20676145785918
H        -2.63765861138491    9.65168103029399    0.24905176435033
C        -1.75464603871803    7.96093938039471    1.22391763843507
H        -2.43161320370274    7.99051656333274    2.06388164713586
C        -0.77375383264552    6.98330119955285    1.17297210800786
H        -0.68067855707979    6.24739587193644    1.96515393035570
O        -0.73622928703673    4.21112940919086    0.25684698242023
O        -1.14713346191965    2.16296701417650    1.95671694569115
O        -0.46623156583114    4.57706139165856    2.96464525635502
O         1.64317274597051    4.81248793821767    1.15532933650049
O         1.41906240352927    2.70934156076663    2.80594677798771
N         0.94715445758742    2.17150331799104    0.34621534363769
P         1.42983519102985    5.71678298994790   -0.01172766501530
Mo       -0.07377699229913    3.41331719836723    1.87189226013539

