31
CSD_code = HILNOF | q = 1 | S = 0 | Stoichiometry = C12H14AuCl2N2(1+) | MND = 4
Au        6.34554551885337    7.46867755988881    2.81030033428412
N         4.84324470534590    7.47209359630239    1.51241220458486
C         3.69983298491655    6.85273709274811    1.81182777126012
H         3.65058715408956    6.35437175465766    2.76812037782775
C         2.61413711482652    6.82048514666397    0.94661580700557
C         2.75446227042525    7.46860740962089   -0.28142028697511
H         1.93726174971543    7.46769044204084   -0.98724494103705
C         3.94321878588106    8.10766895660485   -0.58340622068205
H         4.08168285055434    8.61802387981347   -1.52294188218533
C         4.97312262177564    8.09285070761153    0.33963452054887
H         5.90837925487751    8.59278135408606    0.14403035096331
C         1.35406569572982    6.12279129502621    1.31955293500773
H         1.10144543516347    5.37721418746166    0.56767582140636
H         0.53143634968996    6.83552129263706    1.35962444228635
H         1.44056140643523    5.63333111314037    2.28468062287408
Cl        6.34373216225123    5.15309379331355    2.80786118284502
Cl        6.35044713115051    9.78339288456873    2.80952228642166
N         7.85145413069044    7.46776387467490    4.10396738874858
C         8.99394411489287    6.84887200628704    3.79989123836043
H         9.03884974898161    6.34880336585718    2.84426985906934
C        10.08437562637775    6.82013011996998    4.65925068216796
C         9.94979416106469    7.47088308218905    5.88656675702122
H        10.77110904316905    7.47339117451625    6.58760588971279
C         8.76119747699185    8.10742202922763    6.19431501748049
H         8.62682168033098    8.61902430631306    7.13377156622537
C         7.72649936363744    8.08950927078196    5.27669509118740
H         6.79137061158944    8.58799982257479    5.47654776901085
C        11.34351792564003    6.12351073700785    4.28117635264961
H        11.59805935575332    5.37594334450042    5.03047974050778
H        12.16599364960740    6.83638550738534    4.24095722054995
H        11.25454991959501    5.63642889252164    3.31506010086973

