100
CSD_code = HILPEA | q = 0 | S = 0 | Stoichiometry = C37H57HfN3Si2 | MND = 5
Hf        7.63250743436851   14.70570403785781   15.44197901995208
C         8.13276870282642   11.55854526098275   12.25508014013648
H         8.21177455568129   10.67737487397916   12.88748770311821
H         9.05575748554880   11.65871563345508   11.68176940001809
H         7.31672812546000   11.40601571287261   11.54886550761197
C         7.89878952443555   12.78191116758888   13.09954609065458
C         7.65646375588682   14.03947607603815   12.52381772012914
C         7.68193399555725   14.32112078096456   11.15831310172731
H         7.96616434999664   13.54863609005844   10.46039995517987
C         7.33933150731100   15.57882037228342   10.69468188035265
H         7.35820211200452   15.79473111167954    9.63775520168713
C         6.94529220148879   16.56429827657514   11.60152806015559
H         6.65172897536349   17.53752031113274   11.24074181146739
C         6.92401654415538   16.28852926274216   12.95884418305051
C         6.45264041303782   17.18478921986033   13.95860305799025
C         5.88504509090238   18.52803741873810   13.59593423776098
H         5.52915672210482   19.03793072104156   14.48795749011014
H         5.05320558246495   18.42452471122604   12.89989800875805
H         6.64684652808336   19.14698757710199   13.12193002672868
N         7.90662311936774   12.73000213497514   14.45410045773939
N         7.31111292356259   15.04505271350996   13.44166146862782
N         6.50326765947591   16.73915184067685   15.21503769184984
C         7.69101492349426   11.50934865198029   15.10990568089311
C         8.72209676729218   10.89074012664228   15.82870933317218
C         8.46232138610838    9.71122102630994   16.51041105394043
H         9.26031495806200    9.23495486375953   17.06228933331375
C         7.20420424386031    9.14108903760030   16.48464870418115
H         7.01401924165279    8.21950413766411   17.01430683782033
C         6.18353093612785    9.75569116297942   15.77913574451840
H         5.20546825551479    9.30080795030987   15.77110025102736
C         6.40176733074475   10.93740566419539   15.09064390809441
C        10.11255708049258   11.46379418606975   15.82381425964900
H        10.06175415556781   12.53524111465371   15.60886042761198
H        10.56547192989336   11.31970660186469   16.80721027741458
C        10.98738471503176   10.78190980663249   14.76990410353870
H        10.59434501359022   10.96889766619993   13.77445298904413
H        11.01445544968997    9.70650492290793   14.93384527264397
H        12.00488535562407   11.16424374507927   14.81659189902280
C         5.29971727956265   11.64342916453174   14.33837048566330
H         5.32997411931617   11.33615766514765   13.28805520442573
H         5.50332572510849   12.72688825678651   14.36216478448429
C         3.89727135225438   11.39853146077821   14.88737294169042
H         3.18834076766712   12.05262699975316   14.38406467206664
H         3.86183638714453   11.60853616991639   15.95395811314330
H         3.57739434879409   10.37258456250733   14.72292083045553
C         5.81045483267645   17.41013767956552   16.24026523993206
C         4.45917615356985   17.08757108161635   16.45893617857073
C         3.79708677286371   17.67634296580956   17.52459189444095
H         2.76163982887843   17.44018040495065   17.71199694567203
C         4.44334270232440   18.57807712727302   18.35068253332597
H         3.91285863986356   19.02693938493149   19.17720018661707
C         5.75994956535896   18.92131569798481   18.10690127447778
H         6.24391407866424   19.64790798955976   18.74034762842370
C         6.45886724512809   18.35068625754815   17.05364839515691
C         3.76144972548986   16.14586570089178   15.50679451603176
H         4.50617286621528   15.45345821232410   15.08786525328722
H         3.36751395659750   16.73234426243237   14.66928727794362
C         2.62477215737807   15.33769754933567   16.12566175833387
H         2.28076855798749   14.58684800412518   15.41768588292861
H         1.77735769184962   15.97016763492365   16.37812556627890
H         2.96106192264999   14.83056821074099   17.02717201842642
C         7.87218377797292   18.75395198151224   16.72245581126715
H         8.33984629156750   17.93018171399936   16.17602670465891
H         7.83644459402568   19.61172881119346   16.04125726692852
C         8.73375474345947   19.11604362945113   17.92834828291466
H         9.77197450485723   19.21968712357345   17.61945263600974
H         8.67467268753452   18.33982281597409   18.68694585450228
H         8.42217345348641   20.05802423683364   18.37315084324609
C         6.29609607813681   13.96406239567250   17.07730116542600
H         5.40161113481125   14.59637457500438   17.10411829717821
H         5.95264601426905   12.95512356416314   16.81790154504214
Si        6.98151453195275   13.89884799760666   18.82572596630752
C         7.54196451259990   15.64198414320516   19.38811348082263
H         8.50031046271269   15.90808821512747   18.95443649838385
H         7.64729612024846   15.69512319554504   20.46729733103858
H         6.81949841289415   16.39683033161062   19.09226676492698
C         5.70422054511809   13.29617347459015   20.12701042214649
H         4.84984579621298   13.96450431157579   20.17693649147142
H         6.13461588706055   13.24302888791451   21.12230880592469
H         5.33151418572388   12.30662823338464   19.88040281769605
C         8.46374560254142   12.69234912039893   18.92789184399024
H         8.17685181667349   11.69922980058842   18.59724085768346
H         8.83623512902781   12.60614830279934   19.94377766334378
H         9.28678155620284   13.02077014487763   18.30118943843420
C         9.64437502956805   15.36096991045721   16.18583418708761
H         9.51904601879228   16.17593378338215   16.90783547315710
H        10.11973356014706   14.54599323523893   16.74573810840214
Si       10.80668983713344   15.91960374697393   14.81356246086963
C        11.03683172434159   14.52220140698406   13.52426741691439
H        11.66837376338140   13.72704628367945   13.90709873612139
H        11.50429546730764   14.89682870324601   12.61861324171373
H        10.08191409294798   14.08551635694627   13.24420322629139
C        12.56623978967369   16.39360745206055   15.41942805745645
H        12.53254648646713   17.21513693021427   16.12823022810839
H        13.20443966560101   16.69943657003396   14.59640371472615
H        13.05110173683027   15.55823069529058   15.91473546574533
C        10.12639318114838   17.46644759064341   13.90947686081058
H         9.08522038657148   17.33495890000356   13.62915747471083
H        10.68702123288300   17.66123374494831   13.00029878019642
H        10.19718445894092   18.35564926966873   14.52792790587761

