83
CSD_code = HILPUQ | q = 0 | S = 0 | Stoichiometry = C33H43Cl2N3OZr | MND = 6
Zr        3.99187297586905    7.91083830144841    4.33322156134509
Cl        4.06621772314331    8.14566441889898    1.95115359095713
Cl        2.46394393300996    7.73118027068019    6.17998447351406
C         3.41134384030491   12.00280294677343    5.87342209341309
H         4.19629343505392   12.72632414603444    6.08904793387747
H         2.81889108172044   11.87042278899795    6.78033550534841
H         2.76724891323905   12.40234684864894    5.09230794499707
C         3.97556497785190   10.67716854980531    5.44769379382577
C         4.99065800700768    9.99639542808074    6.17381410385168
C         5.71304633215219   10.49101259796505    7.24830358613878
H         5.42439585984736   11.41995984431708    7.71528010214434
C         6.84451833263301    9.80675528458118    7.69417158952524
H         7.42939595848045   10.20674998071292    8.50785841479324
C         7.22768752765174    8.62721956430889    7.07523960791600
H         8.12127430537489    8.11469792090273    7.39753305496050
C         6.44969575213180    8.09133331445569    6.05091466550151
C         6.63306730575432    6.86578151772666    5.38109170200100
C         7.82797145868301    5.98128211261328    5.60220247853695
H         8.10333909208566    5.94478521879064    6.65402375502839
H         8.68313322046671    6.37012836009299    5.04494676054038
H         7.62953280479343    4.97054974383354    5.25132612052221
N         3.56438750922262   10.03579492527946    4.34864484795935
N         5.31933122593145    8.77487880323888    5.60447625026908
N         5.66871895893446    6.57671831257205    4.47781760489009
C         3.01850738607977   10.71783150056121    3.25656027041720
C         3.79697129930823   11.65692423890988    2.55742185404486
C         3.24531528484233   12.27505068806515    1.44568850526847
H         3.83603077529949   12.99513071848617    0.89753304563519
C         1.96386681360459   11.97673016814384    1.02126369290939
H         1.55196351964637   12.47236499345980    0.15498949743052
C         1.21692394893017   11.02243998293201    1.69033511292698
H         0.22983260257532   10.77981823501390    1.33056055531128
C         1.73099173902823   10.38176987192051    2.80459947481068
C         5.22910303925892   11.93359209691941    2.93860101032336
H         5.58646560760509   12.77936496744943    2.34610145176352
H         5.30494468961458   12.20952511044240    3.99221558480764
C         6.13588702376731   10.72568583420829    2.67857521905414
H         5.88723655578355    9.89153991625233    3.34882795444865
H         7.17636224785963   11.00231991748319    2.84170559218071
H         6.01900462934092   10.38353442861105    1.65173326505546
C         1.00082713751803    9.30094141343853    3.56236904365048
H         1.61949972803270    8.38359495612565    3.49547853627548
H         0.95532676695804    9.58029861891297    4.62339001216993
C        -0.41088877286250    8.99899867557812    3.07311002907951
H        -1.03059440052581    9.89214297872256    3.11662117053292
H        -0.86719832509523    8.24340318680952    3.71024183403549
H        -0.39961759297065    8.62979271861738    2.04946877653601
C         5.62327728796180    5.29224500057321    3.90640855032950
C         6.29329685721857    5.01485450295312    2.70432662648321
C         6.22504345777183    3.72993695584093    2.18247664590669
H         6.75666749251237    3.49974677433383    1.27129942871883
C         5.50748440677599    2.73593061761691    2.82234887856890
H         5.47197922288447    1.74030774215056    2.40499827778774
C         4.84568104576630    3.01682865222259    4.00497938858795
H         4.29338283527338    2.23703584472158    4.51147128093747
C         4.89543971777581    4.28477973765716    4.56497915813760
C         7.10076770401830    6.08403679722317    2.01558530462201
H         6.97672469192656    7.03040109162111    2.55316251775846
H         8.15828177940770    5.80220821710148    2.05527515159555
C         6.69029710971117    6.29737913512929    0.55904568222239
H         6.74396865722458    5.37295177102722   -0.01057479911089
H         7.35164284207624    7.02474213150398    0.09421548673425
H         5.67566453184437    6.68371522721881    0.51328760490971
C         4.20544294487667    4.55462632437845    5.87774815084932
H         3.93926684034275    5.61820845094191    5.96065469643181
H         3.28865867987906    3.96175514742499    5.92666352758150
C         5.07987055090446    4.17328066501308    7.07553105989013
H         5.42392776886960    3.14409703835703    6.98628720861177
H         4.50760785915276    4.27082605205609    7.99524961231575
H         5.94497974824797    4.82588607312618    7.14315386219178
O         2.59586241739973    6.04789342180782    3.55376910755652
C         2.67305691577986    5.47911065959859    2.23962513386682
H         2.15193965354317    6.13791200338110    1.53217654082642
H         3.72473976319419    5.41997661273621    1.95647556701372
C         1.98976879911184    4.10349475802665    2.30776878353223
H         1.32209581770397    3.96639733928533    1.45936125878603
H         2.72742788876177    3.30415969349888    2.29741459384670
C         1.22392210030793    4.13682542093267    3.63755977936421
H         1.70382864971179    3.49165458871378    4.37113815150105
H         0.18630376702659    3.82825370249903    3.53357297139663
C         1.33344135491922    5.60250511256562    4.06022443911059
H         0.52647814241791    6.18537647665904    3.59278663605984
H         1.32128846276474    5.76097384224639    5.13975070454684

