28
CSD_code = HILQOK | q = 0 | S = 0 | Stoichiometry = C13H11IN2Pt | MND = 4
Pt        3.57640446674596    2.16193012484224    1.94915073680410
I         2.45859300797549    3.56783170025041    0.00814827025546
N         2.11812161426603    0.81603545875351    2.21231342236887
N         5.02673450812153    3.33739606149598    1.81476328470254
C         0.95674075924119    0.77285836978908    1.55789018073442
H         0.77397312809373    1.54234969746095    0.82176207514446
C        -0.00428118178511   -0.19556888548801    1.77542753739128
H        -0.92227058369628   -0.17260838399964    1.21148060351388
C         0.24213380006464   -1.17944644013478    2.72058391596916
H        -0.48197917714558   -1.95531488019894    2.91740988355542
C         1.43856234904366   -1.14201718153229    3.40751835981294
H         1.66016162803599   -1.89049970083999    4.15035415210808
C         2.36900233337946   -0.13698782839129    3.14642038695167
C         3.64804258294944   -0.00771135524463    3.82823299005178
C         4.09452185785668   -0.87162339177061    4.82778433184346
H         3.49224106319829   -1.71112391977300    5.14226169409644
C         5.31893853792819   -0.65641531628022    5.42674861534884
H         5.66616104232694   -1.32389279680455    6.20179858373195
C         6.10008268661566    0.41825244279069    5.03205867866813
H         7.05783937415426    0.58811669607582    5.50365770951586
C         5.66132270312268    1.27583892380602    4.03590906857155
H         6.29727538286864    2.10401848821283    3.75115451225648
C         4.43306139797390    1.08484067650309    3.41358653851464
C         5.82811772654704    4.13736047455833    1.59932215731087
C         6.80656349896122    5.13927792703041    1.31115804732376
H         7.27152426096292    4.92428806791725    0.34879441714941
H         7.57185394727807    5.15794188245274    2.08704371683896
H         6.31835728491459    6.11287308851803    1.25906612946583

