21
CSD_code = HILQIE | q = 0 | S = 0 | Stoichiometry = C8H6Cl2N4Pd | MND = 4
Pd        0.67963606451917    5.30356141932482    3.20316662406353
Cl       -0.76449009331744    3.77159506363787    3.86426647199216
Cl       -0.20163508772595    6.74947026030146    4.61762723793030
N         2.05198017117038    6.59625981286903    2.50495786918680
N         3.82739657218072    6.73607752336407    0.94407592991911
N         3.33158829359056    4.08391998516253    0.28006532016905
N         1.57922730655061    4.09361060356202    1.87308561835782
C         2.25854072788044    7.86798384272703    2.85789224286478
H         1.59973690674434    8.26137081854707    3.62582154149340
C         3.25782039903862    8.61913400745761    2.26613235418290
H         3.42531992466833    9.64401954326251    2.55113436530567
C         4.03151617731809    7.99085865042217    1.29081925292210
H         4.83269862951307    8.49986136491936    0.77374457222724
C         2.85720809894960    6.07535691030990    1.54992537949807
C         2.59519936881282    4.68179810117053    1.19942287923757
C         3.06220288166847    2.82627414593687   -0.00652982482678
H         3.68554449268259    2.36991045812947   -0.76262157273803
C         2.03449185864909    2.13108520709830    0.63023414336215
H         1.81296238980861    1.10360312475821    0.39572485556421
C         1.30474059278483    2.81881018155700    1.58291387211642
H         0.48561432451239    2.37063897548254    2.13674086717209

