79
CSD_code = HILZAE | q = 0 | S = 0 | Stoichiometry = C35H39NO2SiW | MND = 9
W         1.06521052942704    1.25707885551365    3.37804411168806
Si        3.25860706412710    4.47274324074218    3.53003381572569
O        -1.72874311412518    1.82850045802280    2.13326555240372
O        -0.78894062389521    2.89112222217490    5.27513645470369
N         2.43866434535145    3.01853121608486    3.03136911856403
C        -0.67839564662232    1.59366689556717    2.56612771668554
C        -0.04778069538003    2.33885809095852    4.57430365240655
C         1.78927080115832    2.65192995611014    2.01398049862597
C         1.78169122403709    3.26731769554441    0.66456307513619
H         0.85878503923058    3.83889904339242    0.56026026398430
H         1.77845914795444    2.49763841691624   -0.10558995760314
H         2.63433636594326    3.93427826195718    0.52742015165051
C         3.88854203000728    4.09366277879404    5.27036874484112
C         5.13402572158218    4.51737130473084    5.72179744393409
H         5.78039187803743    5.06846984934640    5.05286634276749
C         5.55916846939574    4.24195662335795    7.00782150102057
H         6.53400832852372    4.57661321915374    7.33526625627228
C         4.74526979745118    3.54306430133536    7.89107878108901
C         3.49507709032825    3.12655053328970    7.44839664450012
H         2.84319699112872    2.59151606189230    8.12605136196356
C         3.07489665902730    3.39611966022842    6.15985760809642
H         2.09985424411273    3.05999436005524    5.82851702923987
C         5.21269372698026    3.22855579845279    9.27959204515576
H         5.76044716281511    2.28498388249297    9.28473722048080
H         4.36983847494830    3.13196645616934    9.96015308193970
H         5.87933252291284    4.00444481731669    9.64932127178595
C         1.98223931648385    5.86959810872834    3.53207480814246
C         2.35107831057675    7.18835735133236    3.78501637032263
H         3.39018451341582    7.41994119698001    3.97390090365282
C         1.41233192005761    8.20152065543243    3.79680504681757
H         1.72201018623303    9.21914562154389    3.99227306533726
C         0.06944031428449    7.92868856258642    3.56210417366434
C        -0.30459443274792    6.61324773575246    3.31724748076960
H        -1.34394597833891    6.37692366164243    3.13923908435239
C         0.63558546307503    5.60050321218144    3.30238590695881
H         0.31870710736454    4.58051007320934    3.11649953824172
C        -0.95104664818326    9.02466574199559    3.60046025687325
H        -1.82145685328491    8.76598159716865    3.00209538923376
H        -0.53204151323778    9.95953790170116    3.23385171443601
H        -1.28272250362436    9.18490790616010    4.62703957060263
C         4.67794741817614    4.82038385413366    2.32142749345820
C         4.60920641474318    5.86238292855797    1.40227020724564
H         3.72950215920196    6.49022138934424    1.37937160721976
C         5.64612414641510    6.11098118414812    0.52136444057733
H         5.56623881652746    6.92894404860705   -0.18135172329316
C         6.78915508228494    5.32312638927659    0.52828225021807
C         6.86407625719951    4.27837510423142    1.44355746153649
H         7.74725902567077    3.65464011559256    1.46462140196128
C         5.82725852837200    4.03362284008779    2.32189539662654
H         5.91157435014879    3.22039198409675    3.02949122608364
C         7.92372769795201    5.58569966056238   -0.41396145177720
H         8.80944357366228    5.89533242110280    0.14059492521909
H         7.66910254895269    6.36952489168329   -1.12290343565300
H         8.17811066601589    4.68224619114794   -0.96655407137229
C         0.84585284397166   -0.91237631366470    4.04261141007457
C         1.85797661751247   -0.35451002782326    4.89620640689119
C         2.94767789867599    0.03987566327512    4.08431471941375
C         2.64681086635998   -0.29884326766187    2.72528053476656
C         1.37046657150806   -0.91641848632162    2.69583217437442
C        -0.34126141768516   -1.70599766921226    4.51283994802119
H        -0.04800789574788   -2.73953962134794    4.71338919349223
H        -1.12777037708311   -1.71482293891108    3.75995181779505
H        -0.75294402895216   -1.28485889713520    5.42855308673967
C         1.81178038204400   -0.35703714142105    6.39561094774109
H         2.07416689987995   -1.34835137454420    6.77336551779315
H         0.81446972960224   -0.11116388200090    6.75809599355567
H         2.51390113591658    0.36240465709121    6.81156893748833
C         4.28180205029575    0.54402895965656    4.54615740929579
H         4.23235416243098    0.93849827558020    5.55897740532657
H         4.64767223498927    1.33902972606781    3.89524434132595
H         5.01185438011331   -0.26921721079871    4.52862102790769
C         3.63171983031498   -0.21764885880871    1.59469107908987
H         4.20533099178026    0.70943667618446    1.63506322231413
H         3.12879788443082   -0.26565799599126    0.63007743692741
H         4.33679699524107   -1.05094018055508    1.64973030466078
C         0.74437797597768   -1.62449459305358    1.53086469048585
H        -0.34136101587408   -1.55040874791159    1.56622181618048
H         1.01401908866436   -2.68314592664072    1.54993445321387
H         1.08231277405294   -1.20537715281694    0.58485730134087

