57
CSD_code = HIMAMO | q = 0 | S = 0 | Stoichiometry = C20H31ClMoN2O2 | MND = 8
Mo        1.39317825491157   -3.90260108238058    4.90775382316230
Cl        3.73557459035995   -4.66661908692362    4.90756805043481
C        -1.81604188130402   -4.72087553585548    4.90768905639366
C        -0.86404926769002   -3.55783793351815    4.90769720522554
C        -0.39686330484078   -2.95760275105533    6.09397810610449
C         0.93031371121842   -6.63684434163735    5.60667704604761
C         1.26090260698975   -5.45015248483522    7.62027612903165
C         2.63016251489946   -6.03488429735951    7.99573339876598
C         2.87502300586716   -5.86691837061001    9.49058125274334
C         1.76971504429606   -6.54450332222925   10.29614035026888
C         0.40358767785571   -5.98692876209393    9.90635350976843
C         0.15860124503512   -6.16848393182798    8.41103858640801
C         2.07227745083339   -2.62669093602059    6.21835990015310
O         2.48479600042427   -1.87601262289318    6.98027352168177
N         1.07585356994389   -5.47446698354410    6.18409581950517
H         1.25765529041109   -4.39637624366166    7.92104002838581
H         3.40518316182943   -5.52243234777010    7.42038943991584
H         2.66078055305389   -7.09473515592834    7.73184545683449
H         3.84363578560650   -6.29600281527581    9.75220191517360
H         2.90408216259915   -4.80277545962152    9.73412539206182
H         1.93969342124949   -6.39186699326558   11.36347028746106
H         1.78924861014142   -7.62036907017245   10.10581029209603
H         0.36188956471560   -4.92383613823842   10.15417729004464
H        -0.38197112394289   -6.49377917092430   10.47102975950754
H        -0.81884993956685   -5.75968702694667    8.13891716080867
H         0.15299727620928   -7.23522711846820    8.18000852384457
H        -0.31984076765372   -1.87341582294799    6.10778519224025
H        -0.74485344622987   -3.37167715574988    7.03507992831136
H        -1.69416199652965   -5.34292103806557    5.79363216352338
H        -2.83695790559617   -4.33036236595111    4.90765381328513
H         0.86933515354793   -7.57087280199646    6.15712418765325
C        -0.39680913990677   -2.95758975009595    3.72144010368790
C         2.07242367528929   -2.62669437628963    3.59722411394753
N         1.07591911318928   -5.47447774862338    3.63146072089273
H        -1.69411089267489   -5.34296221648119    4.02178199483342
C         0.93033913564323   -6.63685347119769    4.20887932688152
H        -0.31970828004818   -1.87340553362432    3.70766344296872
H        -0.74482133326390   -3.37161088908810    2.78032179526041
O         2.48509614046774   -1.87612325727662    2.83529277504159
C         1.26091011236063   -5.45017135663923    2.19527078722903
H         0.86932764272669   -7.57088453563673    3.65844077450998
C         2.63016536388002   -6.03489421937276    1.81979535122587
C         0.15859250388774   -6.16849694960010    1.40452221110199
H         1.25765967260377   -4.39639796685717    1.89450048317720
C         2.87498973646348   -5.86688294636070    0.32494412668179
H         3.40519139738037   -5.52245889496828    2.39515510334406
H         2.66078040916194   -7.09475402589851    2.08364765087707
C         0.40354324047564   -5.98690891239849   -0.09079692576176
H        -0.81885806625971   -5.75971701493708    1.67667049322830
H         0.15300301902593   -7.23524484887892    1.63552914110135
C         1.76967387265557   -6.54445100505486   -0.48062276120824
H         3.84360047448407   -6.29595267027682    0.06329045478930
H         2.90403766170721   -4.80273229254835    0.08142767970040
H         0.36182410722383   -4.92381068106402   -0.33859609836747
H        -0.38201842025245   -6.49375854157286   -0.65547206476327
H         1.93962979212233   -6.39178419713512   -1.54795357952938
H         1.78922204301154   -7.62032253035568   -0.29032368769429

