97
CSD_code = HIMDEM | q = 0 | S = 0 | Stoichiometry = C49H44NP2Re | MND = 8
Re        7.03611761830668    2.19890266308798    3.83302728885028
P         6.10391631778814    3.66301706664668    2.10248416815938
P         9.03220873066282    0.89539425603015    4.38624364516785
N         7.86015132357318    3.99162629715130    4.91446234015935
C         8.85111668754366    4.57444972917278    4.32993618609505
C         9.34593162832585    4.06767995900407    3.09498932437724
C         8.69283672069828    2.93621104400347    2.56430446001931
C         9.19092288090672    2.45833916215567    1.34746804643426
C        10.26352791342807    3.04817286927679    0.70869229463360
C        10.89678575607775    4.15846966544969    1.25980921916656
C        10.43616137296624    4.66896545938026    2.44880873397001
C         7.48622558432801    4.49331433684713    6.17083741291189
C         6.14962425162163    4.67513416111145    6.51867300590165
C         5.81182816956013    5.18281333600715    7.75750324130276
C         6.79381754807239    5.50432133635709    8.67925099173102
C         8.12390906758757    5.31365699086940    8.34839848480999
C         8.46976399836260    4.82071566536174    7.10570211141153
C         6.47001979221945    3.43832039535250    0.32626205029297
C         6.37792210964768    2.13151958522542   -0.14569839976015
C         6.55941550358180    1.85488186148658   -1.48641716740936
C         6.82233221526125    2.88527324605174   -2.37462394042842
C         6.87505560495154    4.19006260315274   -1.91683687084417
C         6.68975648910350    4.47232875653808   -0.57419323467937
C         6.40443792929063    5.41540523443314    2.47478988052778
C         7.53415209269795    6.10126938705358    2.03940590628743
C         7.78805500746659    7.38189374309340    2.49927568969201
C         6.93575663684333    7.97962930951318    3.41166169502211
C         5.81506603145313    7.29697316921306    3.85890842654996
C         5.55223082569341    6.02334518645511    3.39540030334902
C         4.28407289172656    3.68601609234513    1.85877530814141
C         3.50185270330017    2.62746892525190    2.29841137273080
C         2.14193781800098    2.61596506937478    2.03917022542991
C         1.55924590688696    3.65548801600305    1.33525431678889
C         2.34043662637421    4.70774319096775    0.88327242167467
C         3.69838352340236    4.72178621564329    1.13611504335866
C        10.07427348913375    0.13711842940463    3.08820550391523
C        11.46170218220592    0.15552338967234    3.04802087205464
C        12.13232918292948   -0.51932122605326    2.04175096656743
C        11.43192827197677   -1.22993149935861    1.08344335755143
C        10.04856511265943   -1.28571016945597    1.14366143252991
C         9.37612130693569   -0.61118210687953    2.14302385046631
C         8.83127658824406   -0.67162099661031    5.32287963086256
C         7.58715432202271   -1.26488194615231    5.47821510914179
C         7.47560863358529   -2.48040317611974    6.13231070405705
C         8.60337034023225   -3.11065222661575    6.62780164036433
C         9.84977009774788   -2.52551592412067    6.46470636518459
C         9.96631100216872   -1.31524713414845    5.81023529408645
C        10.16890658552290    1.77197254897388    5.50228847546278
C        11.18055599685327    2.61315825716621    5.04831606143158
C        11.97091352165880    3.29981078790451    5.95410658827032
C        11.75141310202679    3.16730835781911    7.31499133608365
C        10.71760913896786    2.36338355477970    7.77138280116969
C         9.92300980900126    1.68013364159303    6.87160674764383
H         6.92326614697597    1.73975726254386    5.41918390556071
H         7.09849865753365    1.20687636732985    2.55684055162060
H         5.65404388603126    2.86533678348587    4.40390945966320
H         5.91968272854941    0.97135126700153    3.83396793031471
H         9.30711958099219    5.46941626654482    4.75734978076373
H         8.73620112018197    1.59719216137508    0.87579616129727
H        10.61312515505210    2.63950000681587   -0.22960935047973
H        11.73809739064737    4.61245674133025    0.75529318820896
H        10.90151456776487    5.53418924132888    2.90425416516842
H         5.37504770049444    4.41858359481768    5.81321574838367
H         4.77000043347773    5.32443656264765    8.00550687789461
H         6.52495628826747    5.89333913393849    9.65014592726208
H         8.90174542167994    5.54887553206542    9.06081459127703
H         9.51105165536207    4.65929067496160    6.86507117589890
H         6.16121398765737    1.33750931693665    0.55828705840658
H         6.49369249421430    0.83645995666185   -1.84125904159324
H         6.97301093540925    2.67355450187706   -3.42315222895864
H         7.05670731636691    4.99919061229688   -2.61000935108578
H         6.70986198698453    5.50075034214617   -0.24477211611131
H         8.21951194677021    5.63709408160099    1.34413324086991
H         8.66431798334705    7.90955430431359    2.14926392165949
H         7.14539172379809    8.97449719567320    3.77686189012262
H         5.15032992318359    7.75718862029926    4.57549986638671
H         4.67824843917949    5.48565519289824    3.73977342320795
H         3.96961165155699    1.82439486179581    2.85298748836958
H         1.53658600309441    1.79268386041695    2.38882474618228
H         0.49776604299096    3.64809421379557    1.13486367994388
H         1.88886707557469    5.51814615810161    0.32921225185412
H         4.30578197052182    5.54282063232542    0.77910304605990
H        12.03358117934487    0.68119671868231    3.79835684284980
H        13.21239705399202   -0.49158701844697    2.01235355708822
H        11.96319067378224   -1.74894304816728    0.29908368924894
H         9.49628239739257   -1.85711478285668    0.41155507176894
H         8.29552355717561   -0.65247709276035    2.20741913259149
H         6.71171657542099   -0.76040203477468    5.09157537652833
H         6.50356892123560   -2.93510048071543    6.25471161993216
H         8.51598015967029   -4.05813318368922    7.13922288334287
H        10.73296810543441   -3.01709971839443    6.84670969249098
H        10.94079939380101   -0.86274857893582    5.68108776202179
H        11.35325789941441    2.73663109611635    3.98840158210451
H        12.76073422839155    3.94348492886949    5.59221785207383
H        12.37461448890537    3.70121005844116    8.01786192417498
H        10.52550911262974    2.27734721815225    8.83093788523742
H         9.10373207774286    1.06684392618062    7.22327642119384

