44
CSD_code = HIMDOZ | q = 0 | S = 0 | Stoichiometry = C20H14HgN6OS2 | MND = 5
C        -1.18543474291513    4.66774920768352    6.13595367979437
C        -1.81206196583166    3.47496062137198    6.46907532973813
C        -2.06888717832908    3.21955130127018    7.80578140821960
C        -1.67781767595753    4.15250639260808    8.75055721844994
C        -1.03532081949253    5.31760837605022    8.33058819801081
C        -0.59787357267370    6.32990913525240    9.29803367497255
C        -0.77936847101695    6.09527274693731   10.74690792303525
C        -1.63283346983514    6.93310393986692   11.46466793185652
C        -1.80640424969562    6.73675254512851   12.82356765451220
C        -1.12279903339518    5.72185653559816   13.47344412944711
C        -0.26492035519054    4.89686181174127   12.76349796294437
C        -0.09270861864632    5.07728605316677   11.40266922393908
C         0.84510016632312    9.53448340674743    9.11025590094079
C         1.31655906264092   10.52651164528688   10.10631612824066
C         2.38916323731608   11.35070123805126    9.77470849399296
C         2.81484082373944   12.28292691738092   10.70878872244354
C         1.21370616740040   11.66872535021353   12.19505170446370
C         0.70647023789017   10.69419832703482   11.34782857006293
C         2.58847481770656    6.99494813822035    7.47271978435733
C        -2.34964460719162    9.00007699376370    7.77557039217019
N        -0.80997376327700    5.56389078837883    7.03302420925278
N        -0.09459096334379    7.41205384189251    8.82787162826451
N         0.34530121313464    8.38248662468076    9.63655309684260
N         2.24418942952775   12.43646136555851   11.89035970476613
N         2.80529261845955    6.89724593736398    8.59989525047154
N        -2.48316917805743    9.09399249387063    8.91675046130394
O         0.90730164250891    9.73762153971337    7.90857918810805
S         2.31474650384221    7.11494057190031    5.84362456203014
S        -2.21885276780854    8.87057846223507    6.13306334041959
Hg        0.05236715311745    7.92388300484242    6.33646601322283
H         0.33696632847740    8.23092905072492   10.64437008859410
H         0.58486198765820    4.44758651562398   10.84544869876231
H         0.27153536085302    4.10928587499516   13.27063161611256
H        -1.25779787073011    5.57346004106903   14.53413759861139
H        -2.47637848307788    7.37898228453925   13.37491775771342
H        -2.17186300034438    7.71149058357475   10.94221945558380
H        -0.97430208825797    4.91188409378294    5.10218179288549
H        -1.87017842074150    3.99018620714938    9.79926207744929
H        -2.56638156357938    2.31073060713072    8.10968062273733
H        -2.09436816905339    2.77504360510746    5.69925038847217
H         3.64750882253878   12.94136773916249   10.50183783798003
H         0.77282270942742   11.84309774046322   13.16751783175711
H        -0.16043199638647   10.11938069799172   11.63540266664925
H         2.86855474233347   11.24752964502555    8.81467008004894

