123
CSD_code = HIMDOX | q = 0 | S = 0 | Stoichiometry = C49H60BF10N2Sc | MND = 6
Sc        4.79260935449885   -0.76596528872635   12.45764984679623
F         3.25588812147338   -0.83819466472491   14.09784774476169
F         1.02016767592264    0.11948654711570   15.23797539763746
F        -1.04371649096876   -1.57450922394432   15.91482288255959
F        -0.78219191954197   -4.24665067645946   15.42663019142895
F         1.47314232596070   -5.22177022663537   14.34165039404226
F         3.08189933004620   -2.22209855991671   11.50400704192153
F         2.34028398418606   -3.10331914934116    9.04652338811219
F         2.41877210401106   -5.79975177068049    8.47406605964402
F         3.24801958010761   -7.54315386499132   10.39770059589355
F         3.96750125275901   -6.67461811232127   12.81833079034546
N         6.58170304470808   -0.51837276668672   13.56865211704283
N         4.37363181933137    1.30311880304051   12.60170635200633
C         5.49929454936025   -0.96987348967135   10.36557406623770
H         5.66372567063162   -2.01424558431942   10.06247423420394
H         6.44431666588349   -0.44581592831234   10.16464237269726
H         4.78425520275976   -0.56787219655701    9.63146737841736
C         4.57332953895489   -4.66314674110551   14.78126154676195
H         5.50007241393575   -5.09106438724299   14.40948284278668
H         3.92421619372049   -5.48816189952589   15.05743644634317
H         4.82159478019098   -4.12568506311546   15.69274379215256
C         8.73508426759177    0.86263082274628   13.72962702187389
C         7.28771345358843    0.55465527855342   13.27354505216760
C         6.74595520993351    1.59083714149045   12.47972512123986
H         7.49235585260156    2.25938182865925   12.09665966295000
C         5.43841337810011    2.00797115295064   12.21267460830475
C         5.37141866769364    3.29254777397118   11.34787067893847
C         7.03453530570114   -1.62033890142458   14.34091785200778
C         6.69454992091780   -1.69797647177267   15.70353116933806
C         7.15308989773489   -2.76686259777141   16.46020258433786
H         6.91829543073724   -2.81251725656715   17.51263044267041
C         7.90204953418218   -3.77670409471791   15.89208331538233
H         8.25431693991976   -4.59977117056442   16.49452858683780
C         8.17040996461956   -3.73760660723917   14.53857816789605
H         8.72508968000734   -4.54718101221625   14.09005302353898
C         7.75245394359529   -2.67837922289489   13.74608602124932
C         7.28217731031323   -3.87955541182519   11.61634427463813
H         7.45807738041283   -3.89219277599952   10.54263862728313
H         6.21356321948574   -3.77480675293168   11.79832926201003
H         7.60469797895936   -4.83359038734395   12.02599042506534
C         8.05701586872252   -2.72472884475272   12.26343245999386
H         7.72202860815696   -1.78581687213010   11.80519071394256
C         9.55133406164860   -2.90129698657895   11.97295413520647
H         9.72594030476796   -2.83973092607113   10.90070593197729
H         9.90289484260162   -3.87126397972217   12.31481784961495
H        10.14869982081963   -2.13498128270061   12.46014226642534
C         4.61603067555914   -1.32023025906983   17.03588359483675
H         3.89160207749093   -0.56986363106906   17.34611035280833
H         4.91988929536431   -1.87289750794306   17.92142468514480
H         4.13316586376689   -2.01515908735166   16.35272080542697
C         5.82465573183695   -0.65315731225441   16.36834637670857
H         5.46032970281327    0.03895358921027   15.59635364015624
C         6.60775275340058    0.14506567184640   17.41495331203585
H         5.93409521676247    0.78756534787973   17.97707327600210
H         7.36537696054154    0.76969840070430   16.94826556664095
H         7.10195572245565   -0.52374437017980   18.11606974339674
C         3.12276651743685    1.88793046994552   12.90593821032152
C         3.01790200411373    2.73877922290883   14.02754712677665
C         1.79706343116485    3.32196136087517   14.33105928193888
H         1.72263070730055    3.98030854537899   15.18263789162668
C         0.67324563640088    3.08226890763795   13.56806904772771
H        -0.26485510162395    3.55767633591947   13.80945395079195
C         0.76044817352127    2.20710602619328   12.50530355194964
H        -0.12273612232945    2.00403678198889   11.91953589335413
C         1.95818968687312    1.59360907252944   12.16694744390979
C         1.75415943604698    1.35808487116723    9.65735734217789
H         1.68221364926423    0.62794149303116    8.85401329916453
H         2.58193334499631    2.02589810215583    9.43355882266377
H         0.83723081274099    1.94285531788599    9.67543513923575
C         1.96121035411631    0.63650308182034   10.99376501610979
H         2.94673085956366    0.13667884841874   10.96060070265082
C         0.86680423789045   -0.42599585204505   11.15287348037936
H         0.96876967510082   -1.18405172165823   10.38027863774375
H        -0.11954856313281    0.01867831816477   11.05030151039658
H         0.92178951747900   -0.90780626157788   12.12815701026996
C         4.50734207855423    4.47092326174724   15.12602661292979
H         5.39270161612691    4.58800433633106   15.74828221494534
H         3.68868260710016    5.00541791266118   15.60125424487437
H         4.70054670881627    4.93623660097902   14.16373428316149
C         4.17483959615202    2.98502427728960   14.97123511965719
H         5.06353681941772    2.47069072028934   14.59182258311348
C         3.82370434913931    2.39768776967860   16.34125021526214
H         4.67908843043613    2.46384561095773   17.00911495187141
H         3.52912552723597    1.35724734578998   16.23894172695979
H         2.99553933134607    2.93862915591103   16.79191847255806
C         9.38148517228606   -0.12948657570796   14.70170346512941
H        10.35704144891338    0.26083186491821   14.99090548623046
H         9.53443009099154   -1.10392883629726   14.25400918114043
H         8.79468376279472   -0.25473900469670   15.60454451111489
C         9.64439705719633    0.93755223592191   12.48997897190207
H        10.68414348576396    1.00293417676347   12.80360101869645
H         9.43252548797475    1.80608525261300   11.87342882075372
H         9.52493462951248    0.04888479080766   11.87615663133537
C         8.72472594400842    2.22339946864898   14.45179904326509
H         9.72185699567585    2.44813091867054   14.82470033473358
H         8.04169229835407    2.19445131021519   15.29809082240475
H         8.41886441712149    3.03680976718514   13.80262953285391
C         5.71088513199354    2.82009815802356    9.92189119357582
H         5.71119093291912    3.66806678126179    9.23978450606980
H         4.97481739276536    2.09613298675966    9.57908917608490
H         6.68875865728948    2.34672136565775    9.88629569946988
C         6.40469462004757    4.34812905842092   11.78872061344542
H         6.11381613050273    5.32435370569038   11.40687024721644
H         7.39834696176401    4.14063794709651   11.39990125246854
H         6.46021660058077    4.41096007334005   12.87197126002979
C         4.01698601437467    4.00338615164062   11.28297361369788
H         4.08945172588981    4.82103064033345   10.56617438484808
H         3.73426019249268    4.42200267980683   12.24351609404077
H         3.22445997025553    3.34490106658685   10.95190105191411
C         2.48108665952423   -3.08870529151769   14.24359209632834
C         2.27012268866024   -1.73909020744575   14.47474308367606
C         1.12033273835923   -1.19804920965001   15.03398276071877
C         0.07980663621270   -2.05339570524042   15.37424074422744
C         0.22229750011270   -3.41716990221086   15.12873274384157
C         1.40107243003829   -3.90676050633363   14.57627950059217
C         3.52396636331115   -4.41444842073377   12.25864919906895
C         3.10283716128278   -3.57834871171102   11.23752300188990
C         2.73079733299589   -3.99162354821928    9.96983429302219
C         2.77192210293678   -5.35151663119908    9.68235692829150
C         3.19344878901982   -6.23559835648922   10.66990875890638
C         3.56048347978556   -5.76642793456224   11.93108546044955
B         3.89426121033415   -3.69093910005767   13.67628340394209
H         4.65151442395174   -2.71923141145989   13.37673123827180

