78
CSD_code = HIMFUE | q = 0 | S = 0 | Stoichiometry = C26H43F3O3P2Pd | MND = 4
Pd        4.67988942117725    1.48242059443029    3.46745798075708
P         3.43562293089248    2.19934991896611    1.62733972457082
P         6.62681565810345    1.03081168839069    4.67297339950278
O         5.84869296030137    0.83363017767440    1.99597644431397
O         3.42062725723953    2.07804915362750    5.00728533061140
C         2.79901832045368    1.02386946899824    5.25760658528069
O         2.93309921104834   -0.06630171213376    4.71894618340044
C         1.73802766794362    1.17354453927483    6.39242414003677
F         1.15231210079768    0.01776116003662    6.71662301917610
F         0.75802497538336    2.02319487956103    6.03392387965240
F         2.28278545141294    1.66695874746636    7.51804270421919
C         4.65133702293503    2.49293209196932    0.23211249350281
C         8.06119409875218    1.25307739005048    3.48818777671898
C         6.50300639372097    1.93870883517143    1.73143199759382
C         5.99915624133397    2.84428875668627    0.77947830433236
C         6.74219152339304    3.96303991303459    0.44940242788698
C         7.95898303933300    4.20439476936745    1.06969614818126
C         8.42528239813647    3.35165322602649    2.05912566839225
C         7.70308759340290    2.22501606730642    2.40808995845926
C         2.63808257302941    3.90661940498841    1.82820959792577
C         2.28267798942202    0.87867199515257    0.93202462182764
C         1.65892581418656    3.90144146837136    3.00246512758067
C         3.83048916993382    4.78879209636009    2.22281666293568
C         1.94005226265168    4.45231234741050    0.58646011549778
C         3.03608835356008   -0.42716357494158    1.21562334230216
C         1.98109157010664    1.01864189211099   -0.55919041275017
C         0.97893591683235    0.86106307068928    1.72904489759936
C         7.02353104367451    2.29903696552969    6.02413572438863
C         6.78746830931354   -0.76708190623232    5.21908901562745
C         8.36562651781112    2.11111241540821    6.72448629867390
C         6.98325253792613    3.62774318707065    5.25676144999973
C         5.90599515507331    2.33365954027266    7.06703622663499
C         6.00595269596862   -0.98494783326626    6.51403582491286
C         8.22602846670314   -1.25267791201895    5.38939610314517
C         6.07997637171037   -1.53761014605949    4.09718566725270
H         4.73348519437112    1.53646020858123   -0.29050354379661
H         4.27912816053581    3.24815692784528   -0.46085583287633
H         8.96760755174265    1.54488832783869    4.01951923021788
H         8.21516307679353    0.27338352407644    3.02863905535154
H         6.37486836471331    4.65376604353637   -0.29812007577561
H         8.53689029499510    5.07377931889622    0.79566790355968
H         9.36048220662777    3.56927036328292    2.55799039302168
H         0.75680065882957    3.33808474649243    2.78746539066492
H         1.36330189715195    4.92407429674938    3.23461822267282
H         2.12927263653068    3.48242558685597    3.88926116470671
H         4.49139061757900    4.97923481908378    1.38105799726845
H         4.40984824097701    4.29313574702082    3.01681301629085
H         3.48193422874807    5.74650997385307    2.60641738468992
H         1.04095797175199    3.88257437642405    0.36308357686256
H         2.58584263947672    4.44406707711340   -0.28857513771800
H         1.64228203748766    5.48455018201447    0.76809678980216
H         4.01486264528057   -0.43612568053216    0.73618533074199
H         2.46521727753483   -1.28060910532002    0.85252919433596
H         3.18544041844541   -0.54368946966919    2.29708387796680
H         2.87131519221252    0.87987393397177   -1.16713456374126
H         1.55160102496364    1.98979676146437   -0.79129521323395
H         1.26048156533890    0.25467986323823   -0.84933039556838
H         1.18587795893602    0.89550611143386    2.79836320499956
H         0.43615052800565   -0.06108179469857    1.52502130852010
H         0.33397709595864    1.69436632269729    1.45966076535585
H         9.19296715890043    2.04053056595792    6.02223106518410
H         8.35848462568764    1.21942119663975    7.34714906901645
H         8.55393212224488    2.96673122035675    7.37222802554787
H         7.84693113875629    3.74861847864458    4.60773702844888
H         6.95861560958757    4.46558280955831    5.95195169398669
H         6.07296782923502    3.66972398039199    4.63894218970119
H         6.04254307145735    3.19592551144458    7.71886423609028
H         5.89539144363253    1.44647822123598    7.69175281004166
H         4.93630514156904    2.43329624719910    6.58448433507987
H         6.53550639681696   -0.58082286165687    7.37381079505717
H         5.86256565298483   -2.05177598379486    6.68114732587582
H         5.02097770173452   -0.52383022393146    6.44580245050112
H         8.21387180179884   -2.27278829024944    5.77192906759672
H         8.77543817581896   -0.63616736113816    6.09623190115710
H         8.76510313723911   -1.26099037628123    4.44562199671616
H         6.54685717963241   -1.35382092471940    3.12969284616414
H         5.03036308836140   -1.22222029081139    4.03417914114158
H         6.10737022591021   -2.60788305783293    4.29678054823518

