133
CSD_code = HIMFEP | q = 0 | S = 0 | Stoichiometry = C72H52N6P2Pt | MND = 4
Pt       12.24291321621647    4.55315349883355   14.42089401670554
P        11.38376061449907    6.23022983373589   13.12081696437613
C        11.84231718330160    6.59272125702429   11.40500109990638
N         7.08886562797327   -2.59977659286434    6.83041151894296
C         6.70747977567738   -1.33564077196160    6.98706538274342
C         9.10538875749383   -0.03594876706792    9.57834364718121
C        11.61439850541626    3.15601920938014   13.17612045743056
C         9.58116434588588    6.05606828687308   13.04346287933112
C         9.00904135865272    5.22243593876687   14.00018374812624
H         9.65672477666898    4.70633403541592   14.71239406681260
C        11.81012799361954    5.78840374558686    9.13820051447142
H        11.50800662794504    5.04716484907458    8.41352908243944
C         7.34027698818615   -0.45972195268098    7.86549077197285
H         6.98983473003164    0.55784983710116    7.92232160155301
C         8.80276486910225   -2.24052445559700    8.45711848160009
H         9.60920582412624   -2.67596583526289    9.02391372520034
C        11.46278414295129    5.63413211688221   10.46530009459881
H        10.90231267366983    4.76871302620818   10.79466010908610
N         9.57647881733508   -4.87432395976823    8.02785885895132
N         5.15486798995633    0.37269618361473    6.35809352369665
C         8.40078519494754    0.93196657050062   10.29553678679727
H         7.33386832830601    1.02903576986593   10.15419776336024
C        10.41761443307698    1.60946492816813   11.42464344485946
C         8.41500263081107   -0.91295727281183    8.62832170780680
C         8.51293207976381   -4.44451882815022    7.35139572137777
C        11.06343136405297    2.44474994215589   12.36260918008725
C         9.04308985514250    1.74158430125826   11.20660325738653
H         8.48968987516681    2.48265036993728   11.76776550169706
C        11.12892163875520    0.65290614928861   10.69666168233665
H        12.19304715945514    0.55517974532835   10.85574908605589
C         5.56340887863308   -0.88273653631293    6.18216428244621
C         8.11668423388550   -3.04231795409469    7.54838658102221
C        10.47906985574732   -0.15852544300304    9.79247375111715
H        11.04311850660117   -0.88638781968577    9.22718448459126
C        12.60748131952599    7.68200205286599   11.00659205156766
H        12.93807781883059    8.41835558882622   11.72593764605397
C         7.64052191758838    5.03161632024387   14.02300994001211
H         7.19778416049831    4.37664235404962   14.75854748774641
C        12.55146736030088    6.89101831900240    8.73992233668007
H        12.82383962665259    7.01336881347422    7.70216374188564
C         8.77727685184247    6.70434240407723   12.11367072146795
H         9.22408805405581    7.34652218519915   11.36679697480912
C         7.79635975092366   -5.27596970090509    6.48894699649886
H         6.94280976085485   -4.87689916894915    5.96636162855287
C         4.93926239248883   -1.74654038789002    5.28027423625019
H         5.31197606780820   -2.75209555080388    5.17672058887825
C         6.84083073216815    5.67447583809778   13.09099343699901
H         5.77184603228327    5.52056557049391   13.10033109799656
C         7.40808398319010    6.50929736614724   12.14098890065032
H         6.78062203617973    7.00616653622997   11.41545740512256
C        12.95351521190637    7.83009358879692    9.67420766438910
H        13.54279049965028    8.68183241865690    9.36619637011872
C         4.12688171380038    0.80524010232853    5.65518967728564
H         3.83894961082348    1.83305011568144    5.83976990082610
C        11.56694308237200    7.82507066044134   14.06094776506975
H        11.43799385429956    8.69224626235932   13.40667808823456
H        10.75536256930904    7.83377713262836   14.79855512668107
C         3.86229922997674   -1.28291989150771    4.54911092990778
H         3.35742083304731   -1.92765218455448    3.84332175658429
C         9.95862800716375   -6.12628444295984    7.87372584743524
H        10.82839672586386   -6.41950559070825    8.44860543052174
C         8.20540355516956   -6.58699844513247    6.33450695499767
H         7.67117706848232   -7.25619063624760    5.67451287213112
C         9.31344730001826   -7.02974379430262    7.04173875210633
H         9.66691742695209   -8.04528127624718    6.95141272040115
C         3.43994958366714    0.02500873686156    4.73685221302310
H         2.60297078473124    0.42807699136130    4.18776381607828
P        13.10196855348766    6.23424325820135   15.71570462124517
C        12.64274203205516    6.60199850821858   17.43022918220618
N        17.40105034751524   -2.60294672247039   22.00658666795837
C        17.78262131018295   -1.33858963947226   21.85218049317287
C        15.38368682923440   -0.03369207296746   19.26435371730526
C        12.87365571978327    3.15899093834183   15.66788592437253
C        14.90461886111760    6.06102039440690   15.79408032720965
C        15.47724732445059    5.22574423350177   14.83909073894189
H        14.82989464704779    4.70810096359029   14.12767712548121
C        12.67287131053711    5.80353518345202   19.69912738942337
H        12.97367663847395    5.06379379816106   20.42587272297272
C        17.14959644351950   -0.46083751794367   20.97573549798382
H        17.50027836156957    0.55674854680239   20.92062458551495
C        15.68636337405245   -2.24017767825492   20.38152936818478
H        14.87950704407226   -2.67432971352506   19.81433759092377
C        13.02066497814737    5.64539505979494   18.37260117548455
H        13.57987346640569    4.77823662526229   18.04563985395198
N        14.91198725195495   -4.87446170578381   20.80642174555335
N        19.33602354196233    0.36807774912457   22.48387895260579
C        16.08813182436028    0.93500946954298   18.54808582579724
H        17.15512516080357    1.03172690942069   18.68909883216100
C        14.07114297274736    1.61339274175089   17.41976443516542
C        16.07436985351174   -0.91238121751296   20.21261489995211
C        15.97633605683055   -4.44639917733552   21.48272768306220
C        13.42523376556933    2.44873099432822   16.48189517137448
C        15.44565377625766    1.74548083307962   17.63787864584289
H        15.99897928779426    2.48698331916597   17.07722164439961
C        13.35988852967488    0.65646571936609   18.14730516594191
H        12.29572047854950    0.55893888567500   17.98837823772924
C        18.92723150581416   -0.88760606331109   22.65740044858251
C        16.37274326455529   -3.04388323918817   21.28833041286805
C        14.00989706357269   -0.15580782232535   19.05060885226345
H        13.44596361819890   -0.88429097219921   19.61521289737133
C        11.87877563815788    7.69328586732331   17.82544589099974
H        11.54941025966141    8.42818348068890   17.10405266846131
C        16.84579957291352    5.03517918950106   14.81706225950863
H        17.28893343224542    4.37909216252068   14.08275785317957
C        11.93266232618019    6.90807360486075   20.09417819643973
H        11.66025333022382    7.03364525075027   21.13154464448652
C        15.70804309126895    6.71121552256000   16.72291745823222
H        15.26081872228970    7.35448565978325   17.46860350866286
C        16.69361747041835   -5.27992125249058   22.34258237875502
H        17.54786049212044   -4.88223273050874   22.86508935798046
C        19.55162316100091   -1.75346242292446   23.55715553819627
H        19.17870535598306   -2.75913646018480   23.65879891304419
C        17.64504097784525    5.67995307679337   15.74814812995164
H        18.71408915025221    5.52646347164847   15.73927895930440
C        17.07729400669541    6.51643054567802   16.69639324072881
H        17.70440249827004    7.01475221712532   17.42123233387239
C        11.53225706518352    7.84523648495771   19.15727690582359
H        10.94414977999711    8.69866059089986   19.46284802513374
C        20.36450538838088    0.79886228159313   23.18714193240762
H        20.65258475687125    1.82699732440227   23.00461618616280
C        12.91876087434718    7.82611943479012   14.77058332284585
H        13.04780989288071    8.69540396898096   15.42202693309740
H        13.73032861737981    7.83242966068246   14.03293761725367
C        20.62909723101199   -1.29167268170954   24.28871980660762
H        21.13418189357055   -1.93803191666534   24.99287297701326
C        14.52972133226246   -6.12667801421339   20.95815897912620
H        13.65917825378883   -6.41837134918418   20.38367554224874
C        16.28440255817304   -6.59118444135203   22.49457581005874
H        16.81920661800688   -7.26198351492867   23.15246782625135
C        15.17552950853011   -7.03211226583024   21.78750772766177
H        14.82187791830678   -8.04774808187334   21.87600133251292
C        21.05170809201261    0.01652812518977   24.10348761291433
H        21.88907176566158    0.41822492869478   24.65299444166873

