75
CSD_code = HIMHUG | q = 0 | S = 0 | Stoichiometry = C27H44N2SiTi | MND = 12
Ti       -0.54569706614848    2.86750339664284    3.20500895767591
Si       -2.72809462304947   -1.90651558571330    3.60707482747713
N        -0.06668022246524    1.02715390640108    3.14027866850337
N        -0.62617487557302   -0.15119479282198    3.28058969376342
C         1.54297135345665    2.65009659698940    2.95184902506376
C         1.30887750678666    1.18549783140256    3.18635270030059
C         2.20314489387223    0.22505628191378    3.43902303328938
C        -1.89975337228624   -0.23624446837330    3.42828421055680
C        -3.72522718039683   -1.94743588461207    5.24312726139729
C        -1.41782999743361   -3.28500138824932    3.60677786041135
C        -3.97409381631005   -2.17616353717823    2.17812223268593
C        -1.73072076475644    2.29717188498442    1.17527478992801
C        -0.43549463515867    2.74597033114094    0.82055730376704
C        -0.31315997711580    4.10307980562323    1.23463551624999
C        -1.55714269006393    4.50374118401800    1.79263594980051
C        -2.42389252582496    3.37650770465744    1.78738755772927
C        -2.33816153933253    1.03310684782435    0.63835898559949
C         0.50208211017407    1.94508246536404   -0.03429212729522
C         0.77447183196688    5.07358791081521    0.87038938812270
C        -1.95649683970540    5.94794426180490    1.89078859758289
C        -3.91060297367545    3.38740861783627    2.00136463444096
C         0.28490572859625    3.15622846807366    5.38045211778781
C        -0.23695831821337    4.41198447728477    4.94351578356002
C        -1.64593671479005    4.28956652671324    4.85621733402134
C        -1.98861712972920    2.93662150933906    5.14229517746554
C        -0.79918394080921    2.24694833910757    5.49570765034190
C         1.61992465274433    2.92454304742061    6.02715690876081
C         0.56473900417421    5.68143110882525    4.88035845464771
C        -2.63099187595271    5.41803061677123    4.95803231907793
C        -3.38357178747221    2.46916060305778    5.44782657161632
C        -0.69266322758779    0.91685545342465    6.18179501827335
H         2.28915692146459    3.06116854534288    3.63521772138165
H         1.92217646749242    2.80312344066183    1.93896903588984
H         3.25786288708489    0.43829165207875    3.46604277289347
H         1.89324911539315   -0.79377308523996    3.60089401662443
H        -2.49138911919728    0.69860114573377    3.44206391318360
H        -4.46043166730090   -1.14820698760472    5.28428216417593
H        -3.07832007304714   -1.84501811596779    6.10973892444473
H        -4.26275395603109   -2.88495861706698    5.34816654840628
H        -0.72957233528127   -3.16563796270857    4.43677652845191
H        -1.87038552480115   -4.26886247831288    3.68713388753252
H        -0.83241519391455   -3.26004763012086    2.69397722708162
H        -4.47417639552850   -3.13543540388318    2.27187345214287
H        -3.48112097860315   -2.15640849779035    1.21091353514594
H        -4.74406479461035   -1.40976369378569    2.16970816485826
H        -3.27299322152316    0.78567392923443    1.13445307429260
H        -1.65734161131686    0.18948430183296    0.74068491866315
H        -2.54818476039411    1.16847936219294   -0.42710724376482
H         0.81562777300653    1.02773349559225    0.46852231519145
H         1.38841448163881    2.51508596202222   -0.30517908840560
H        -0.00829598774328    1.66133627763251   -0.95724795628020
H         1.64535906322054    4.56729365375945    0.46025625355497
H         1.09298567286187    5.65922305794576    1.73374342156580
H         0.40433023463433    5.76931534239070    0.11248191518869
H        -1.97861108822658    6.36869686254598    0.88077455521244
H        -1.24405640432240    6.53656565476345    2.46721788968391
H        -2.94765974969888    6.07091745827432    2.31621101559524
H        -4.41310928146607    3.50350743482641    1.03693001933930
H        -4.22621900641326    4.21236851248856    2.63635831804488
H        -4.25923135295550    2.45311972375688    2.44208238781344
H         1.47972413985631    2.89773220087269    7.11161265961308
H         2.05451093361473    1.97145271025812    5.72693375783026
H         2.32163068251262    3.72518609645658    5.80342994487313
H         0.78704363380834    6.03437357409597    5.89085574176530
H         1.51304070393968    5.52128411184492    4.36431417369993
H         0.02201882248313    6.47216421790685    4.36567122454507
H        -2.90883814030000    5.52974357558193    6.01070634781417
H        -2.20894729387122    6.36344940357393    4.62997129112024
H        -3.54834746956788    5.22780342729665    4.40537345611636
H        -3.65502392703248    2.79216594424476    6.45731165292909
H        -4.11480051143192    2.89167515116605    4.76169767033424
H        -3.46029478777039    1.38395401810573    5.41530574195083
H        -0.53207819761055    1.07981482864984    7.25121244410816
H        -1.59646454687544    0.32564979955454    6.05632523402136
H         0.14932485590691    0.33895407929930    5.80069256877018

