56
CSD_code = HIMJUJ | q = 1 | S = 0 | Stoichiometry = C24H21N10Ni(1+) | MND = 4
Ni        1.37876791597889   -0.33073568932352    1.17142682155749
N         1.41070795998393    1.03973754765913    2.41440047728832
N        -0.16608681173836    0.33472479530115    4.00649689594336
N         0.09389217033867   -1.16076671345650    2.21377885687568
N         2.70268873653301    0.53575028988866    0.10330985529279
N         2.95328627874122   -1.01523612879213   -1.60753948065749
N         1.34868535773587   -1.75588850823801   -0.09934048792021
N         0.79038477070868    3.43314674480005    6.47783783059027
N        -3.28742486747029   -1.81239336425717    5.49999235522783
N         5.11875486550770    1.83450726760423   -3.76546351099517
N         1.76571892042700   -4.04355468862274   -4.23354474175152
C         0.69506373178941    1.20816797460619    3.51013194188133
C         0.85108999128175    2.43781962372335    4.30892315940982
C         1.16774258490133    3.67312996095076    3.74598187203995
H         1.27200757693221    3.78967021290177    2.67476011770750
C         1.29645672450137    4.77396765049162    4.57496423204951
H         1.53138940342927    5.74634010764190    4.17208068684462
C         1.09656507937685    4.60002506313149    5.93791242787275
H         1.17585418584948    5.42961295245801    6.62665007874860
C         0.66845343093882    2.38439832522380    5.69485237410252
H         0.41785282469990    1.44672326379130    6.16914819294705
C        -0.42001467327872   -0.79997054475769    3.37444247850883
C        -1.39207047422889   -1.67566038132929    4.05477673102630
C        -2.38268158499997   -1.10464963772305    4.86100253337035
H        -2.42975937788884   -0.03172289381184    4.97713892786888
C        -3.26682161049732   -3.12874040354204    5.38333274448536
H        -4.02889723132980   -3.66078335322244    5.93564600351385
C        -2.32910619300095   -3.80548113307317    4.61496977045141
H        -2.33794699841188   -4.88236869438962    4.55678268862133
C        -1.37279737105428   -3.06494769226276    3.94225181510367
H        -0.60142262930542   -3.56954131402748    3.37453216973986
C         3.25873962126514    0.17180949947986   -1.00038422338367
C         4.24830456981555    1.00250340840297   -1.70416663633087
C         4.25210040223344    1.10533936860982   -3.10045104919210
H         3.50618056525591    0.60729039620995   -3.70738035077523
C         6.02790330325538    2.52096429117135   -3.09782261562630
H         6.72424361895699    3.08637114660829   -3.70020202787625
C         6.09760967712482    2.52655498163279   -1.70882207584584
H         6.84588144994391    3.10956557720618   -1.19750822919798
C         5.19737630869642    1.75119223590249   -1.00224223073210
H         5.25262825674305    1.69463596042356    0.07629088644254
C         2.03210565792158   -1.93017778220769   -1.17745618689946
C         1.87330904434714   -3.11291334639035   -2.03822999163531
C         1.66756684968910   -4.38248695394232   -1.49093030128202
H         1.66322462034940   -4.52250247371980   -0.41871246289294
C         1.52254744411182   -5.46431534935555   -2.33908706282935
H         1.37148033900704   -6.45705603335663   -1.94804010985221
C         1.59752427880753   -5.24408573363302   -3.71018467935876
H         1.51969543158705   -6.05718200094031   -4.41748093827993
C         1.89269438612981   -3.00918293904986   -3.43411066659177
H         1.98019169433838   -2.05037498106264   -3.92987029923595
H         2.04424745697948    1.82313305391517    2.24866217054192
H         0.69141706237004   -2.52158560478382    0.05657706539488
H        -0.28914295351647   -2.04868959045807    1.88607160307126
H         3.47568052838593   -1.25012049172146   -2.44249364704870
H         3.03455769974770    1.45263272170161    0.40633824166766

