55
CSD_code = HIMJOD | q = 0 | S = 0 | Stoichiometry = C24H20N10Ni | MND = 4
Ni        1.97130374376858   -0.91611133504288    5.77070066478472
N         2.31557988775525    0.23993408617438    4.34379364397983
H         1.64033348057933    0.29717830772638    3.58021567531910
N         4.35730616222504    1.22063018943740    4.98723107268353
N         3.57193815569338   -0.35484147067108    6.55105116793746
H         3.84435814173586   -0.74552220249498    7.45406514687268
N         4.06026877008862    3.95777519710649    1.95141339093515
N         7.26261462843652    2.45130919620174    7.60029382736897
C         3.33334841930998    1.04856309889150    4.16003783128017
C         3.39824244491799    1.88297352060408    2.93925258825745
C         2.90663597182942    1.45050286208747    1.71013259640840
H         2.48580104156094    0.45961162433924    1.59684569725903
C         3.00072487150842    2.29276784191098    0.61528281607667
H         2.63728490114754    1.98528484841283   -0.35315569090132
C         3.58430509633971    3.53858196479756    0.79077565345749
H         3.68284544746148    4.23218403526575   -0.03372522015318
C         3.97445813784664    3.15375222054809    2.99115626529032
H         4.37601147729275    3.52382574055148    3.92324786447917
C         5.65280954221559    0.82106683034390    6.91458353340850
C         6.29392856717535   -0.14285874114126    7.68871949581988
H         5.94502074519784   -1.16749034213199    7.70307328352561
C         7.41739270638620    0.21648033749848    8.41375875142351
H         7.94242724028089   -0.50787614413907    9.01721018357375
C         7.85904405854890    1.52889699603086    8.33706679230738
H         8.73273396909834    1.85876577634796    8.88336813313276
C         6.19661723441865    2.10713416960612    6.90748058740284
H         5.73507621663159    2.88193645984209    6.31278972207336
C         4.44332962363346    0.52472754217405    6.11455939938947
N         1.62728186185172   -2.07251301472127    7.19739155277619
H         2.30256244226347   -2.12980674338433    7.96093469288210
N        -0.41439760366822   -3.05329646998218    6.55392015588269
N         0.37100116589179   -1.47787646362901    4.99007197352252
H         0.09857272164833   -1.08718288165983    4.08706346073255
N        -0.11730572228230   -5.79046667960865    9.58967876868771
N        -3.31980795155322   -4.28384036582338    3.94092396589397
C         0.60955373245747   -2.88120322900353    7.38111716040708
C         0.54468097477477   -3.71562943875130    8.60188964468830
C         1.03630730655295   -3.28318447057433    9.83100915076623
H         1.45715446743368   -2.29230049708532    9.94430888068853
C         0.94226194962710   -4.12548961893382   10.92583033681404
H         1.30572182547381   -3.81803381829015   11.89426938765462
C         0.35868640561449   -5.37130334770283   10.75031415750937
H         0.26016368178177   -6.06492725516129   11.57479808862057
C        -0.03152168162999   -4.98641301539302    8.54995762128988
H        -0.43312005949729   -5.35644148905261    7.61786985926864
C        -1.70994671733886   -2.65366214813308    4.62661963595530
C        -2.35106151937462   -1.68969480191705    3.85252292968379
H        -2.00210893334756   -0.66507964617608    3.83816571296051
C        -3.47454031865430   -2.04899793739145    3.12748526813339
H        -3.99958726807460   -1.32460758737857    2.52407839681601
C        -3.91621753422519   -3.36140707537084    3.20416392886452
H        -4.78997140562575   -3.69122915105319    2.65793763180906
C        -2.25379994929541   -3.93970127838908    4.63373464443223
H        -1.79222155455400   -4.71453831384561    5.22836258321730
C        -0.50038099933436   -2.35745587186560    5.42655553665002

