51
CSD_code = HIMKIY | q = 1 | S = 0 | Stoichiometry = C15H30N3NiOS(1+) | MND = 5
Ni       -4.36704175821495    1.28768605438187    1.36804337488414
S        -4.28222481018322   -1.01748838242221    1.56618023291699
O        -2.66789385091250    0.72700345609025    0.84520310820429
N        -4.22568602516893    3.00326388827371    0.21452132039081
H        -3.33943523722464    2.82099704172169   -0.26457312278230
N        -6.13227951988409    1.65837867256255    1.80491317396470
N        -3.65481202617445    2.19698007284363    3.39264653968697
C        -5.29462578501065    2.89934039677981   -0.80054923106841
C        -5.13301188850465    3.95220177966369   -1.90403720138596
H        -5.28077122721265    4.96046191665219   -1.52693893443636
H        -5.86236748646740    3.77994289725179   -2.69037284787452
H        -4.14214482922541    3.88856708591178   -2.34760083649837
C        -6.67192720316751    3.07581109217329   -0.13919628841786
H        -6.85269507973921    4.14016679999601    0.04030932684636
H        -7.43244075572463    2.76175897200849   -0.85920212148134
C        -3.57989970100767    3.66971165389039    3.33154878142921
H        -2.94533992430363    4.02846765162460    4.15485070732318
H        -4.58034948948275    4.07688284464362    3.48597600289641
C        -3.03891358553818    4.22823976531209    2.01255955512571
H        -2.68603989135195    5.24171974337782    2.20742993222637
H        -2.18413938044890    3.64177342598454    1.67430089708459
C        -4.52822080747541    1.79992795085089    4.51402857383563
H        -4.26206403007216    2.37552510874518    5.41259983196323
H        -4.33708540361842    0.74433352004042    4.72291638685518
C        -2.74881066762173   -0.50237177891554    1.05866832050013
C        -6.51267727137305    1.08103317508191    3.08833690932786
H        -6.05088307611277    0.09378848444927    3.17455917129794
H        -7.59435739393936    0.95087511179016    3.15464387163526
C        -6.96960570180957    2.37129969607770    1.15444337891969
C        -4.07438697594827    4.29870011909646    0.88702378052248
H        -5.03736320055174    4.60255093293216    1.30095949368468
H        -3.75251520971604    5.06162260784254    0.16817496424362
C        -5.19183636723670    1.50279393151376   -1.42727180628187
H        -4.23607354122924    1.38133342820903   -1.93399651410823
H        -5.98113233656553    1.35132863822704   -2.15830975122384
H        -5.29084066855185    0.72168459006418   -0.65553239862326
C        -6.02477042383206    1.95694252938528    4.24944990872100
H        -6.28359635358563    2.99955197561310    4.05772163439627
H        -6.54971346300783    1.64755512223802    5.15367743625663
C        -2.31191250394915    1.67431784067657    3.68791401393577
H        -2.33640409857859    0.58575085355557    3.72662937866565
H        -1.95045610323020    2.04828653665532    4.65353569440548
H        -1.60973434241594    1.97417771940240    2.91389008738588
C        -1.61390732010956   -1.44325466593883    0.87464242113342
H        -1.61060012397078   -2.19113492532535    1.66458199331797
H        -0.66942453635825   -0.90330555316455    0.85578734805819
H        -1.73676628541225   -1.96769429327910   -0.07408273080678
C        -8.37917536983862    2.61224901583740    1.61540324782570
H        -8.40431870827046    3.01600703079320    2.62529541875451
H        -8.93856603107418    1.67679692128542    1.61517329474089
H        -8.88916222959100    3.30616154753420    0.95442427162639

