70
CSD_code = HIMLAR | q = 0 | S = 0 | Stoichiometry = C26H32N3O5PSi2W | MND = 6
W        -1.43710012973281    1.79236126827214    6.55072765223470
P        -1.15564591147883    1.98008065552382    4.08339454612566
Si       -2.18552651813134    4.54661603644113    2.90863665449796
Si        0.38404995754626    3.03036799255751    1.53625510998506
O        -1.58435683690484    4.90294660343636    6.91749725682836
O        -1.88484708188399    1.48139233739741    9.62836103600764
O        -4.45049814647512    1.09735662179185    5.99970388243371
O        -0.96492496675567   -1.30850634835820    6.36424826888411
O         1.51487666443075    2.30077810635082    7.46270769109402
C        -1.61119089605215    3.77084309343747    6.75142738019630
C        -1.72987745815387    1.60015618747802    8.50085492153438
C        -3.36725660551208    1.40975430275229    6.18611046047126
C        -1.14028590496373   -0.17981013560449    6.39273061861186
C         0.47455872769478    2.10244218313043    7.02832859330086
C        -0.32697344756118    0.40001593615414    3.64058997342095
C        -2.38877237186798    0.24847046218170    2.87310200759037
C        -0.60423345440386    3.44603548065549    3.14413865912674
H         0.06441185191350    3.97800855164416    3.82788951752970
C        -1.57573026555737    6.35476188843488    2.92254507495617
H        -0.83393859981457    6.55030840010603    2.15794783148356
H        -1.14031352440632    6.61989006813247    3.88100717576248
H        -2.40996331429368    7.02517535021880    2.74914203600812
C        -3.51125994145157    4.40157582708345    4.27200953028589
H        -4.50367347344256    4.54995822998059    3.85542260302385
H        -3.37519326120552    5.14466914981818    5.05118234038955
H        -3.49365906500835    3.42089202077809    4.73746584656350
C        -3.06121253116042    4.13132705329488    1.26371415800547
H        -3.38336570594685    3.09585104035992    1.24946960980122
H        -2.42890078458879    4.29619597440371    0.39907515513266
H        -3.94291297315627    4.75395228839320    1.14686007371285
C         0.60317944669151    4.64337782760955    0.53734264160464
H         1.14682735241689    5.38847641435971    1.10888314339522
H        -0.33435110235911    5.08674922451083    0.22447888362712
H         1.18272796723359    4.43972985483352   -0.35706187239764
C        -0.46268304022078    1.71098861712897    0.45516359337391
H        -0.02815308057132    1.70193839917686   -0.54013362669714
H        -1.52736147065245    1.88554331483206    0.34898332040898
H        -0.33702113281363    0.71663171283225    0.87265044924239
C         2.17112229508416    2.46064318384356    1.90725795620446
H         2.77765852640481    2.57741459097185    1.01402574223556
H         2.22625059985077    1.41758573749541    2.20029673607150
H         2.63838970022442    3.05043786036967    2.69022876206520
C         0.96848723264691   -0.04198713272961    4.10297522336094
C         1.34055556843094   -1.38408178322262    4.00592508598751
H         0.64794080426524   -2.08101333758532    3.56077995052365
C         2.56739617995775   -1.79514940416467    4.48847303369603
H         2.85181746591074   -2.83455652532785    4.41881480004790
C         3.43118968374083   -0.87926736227139    5.06988896915864
H         4.38572550993433   -1.20682449414303    5.45413455304332
C         3.07244211443789    0.45755253883304    5.15997535175624
H         3.74624140934781    1.17019337158117    5.61141010926313
C         1.84870248640113    0.87466036974888    4.67742068384644
H         1.56018365165825    1.91719382521002    4.72367060132208
C        -3.40548177706603   -0.51559052715284    2.23640476544975
C        -3.24670480808103   -1.77936636001437    1.67286389432080
H        -2.32852439163907   -2.32994462942608    1.65527103268423
C        -4.47830724452379   -2.15892368865935    1.15036097182360
H        -4.70758911330562   -3.07501133521222    0.64285370686361
C        -5.37070997273328   -1.13248350206289    1.40829967951337
C        -6.81528730751184   -1.03839795056162    1.07685303109850
H        -7.41537134636673   -0.93345864342825    1.98137587521027
H        -7.13078554316852   -1.93578074643286    0.55257393025958
H        -7.01415681857876   -0.17421366588397    0.44188359515541
C        -5.34025889595502    1.06357338572050    2.52869742289461
H        -5.78272992700814    1.61374869148256    1.69515485935079
H        -4.58760270724658    1.68250765836133    3.01130121800992
H        -6.12809149907881    0.82631425508142    3.24722245985436
N        -2.52250490198068    1.49007007954036    3.28092131835548
N        -1.18126984760679   -0.39238026669028    3.08005063930174
N        -4.71597609784957   -0.14156618481930    2.05768184372649

