48
CSD_code = HIMLIZ | q = 0 | S = 0 | Stoichiometry = C19H20BrMnN2O5 | MND = 6
Br        2.96619226979952    2.19975464355299    2.46256988318838
Mn        5.11666296075396    1.35166341013792    2.72782205595473
O         5.74364094130872    1.41320669531769    0.96052831592109
O         6.68324187740652    5.21809107218788    2.45423353988483
O         5.15778623708844    1.13662828013565    4.57112536384044
O         4.07310668679107   -2.61799219725983    3.02488530658384
O         7.28589474986930    0.40407051583418    2.93768266753043
N         5.86173168457389    3.19564068179940    2.94171982087503
N         4.49165643522793   -0.47454181553734    2.54245122527774
C         6.21816241980551    2.34425959683815    0.18685779632097
C         6.56415038036012    3.64225435733480    0.65590366375494
C         7.09782047802839    4.58722712481236   -0.22619281387976
C         7.29616599686457    4.28069419212049   -1.55219256324195
C         6.96076303693391    3.01333825179381   -2.02402551939072
C         6.44025600330036    2.06453621107551   -1.17762895720257
C         6.34937641642078    3.97986622327099    2.03816107173630
C         5.76109557476163    3.93921269183991    4.18788057656660
C         6.31682662287003    5.32830644078235    3.82579686055943
C         5.16374565110455    0.07218653987899    5.30759540294764
C         4.83903591863812   -1.22825344671705    4.82271504381783
C         4.84972369486790   -2.32500360331912    5.69229490362094
C         5.18756320143969   -2.17297690254665    7.01558853172147
C         5.51497574902973   -0.90762473875790    7.50336058286878
C         5.50253127817032    0.18665186361497    6.67565116952507
C         4.48119242063588   -1.40075857940497    3.44437808164408
C         3.98124826725126   -1.03106772619147    1.30114536388935
C         3.73625923038754   -2.51137438906000    1.64551562816944
C         8.33425644622722    0.89388065541880    3.74981344633487
H         7.34533689164804    5.56413275169385    0.15976385113122
H         7.70372232246150    5.01837882664370   -2.22573472457499
H         7.10953525883414    2.77287834804825   -3.06663210100435
H         6.16949209565749    1.08373787106708   -1.54072096955414
H         6.34038268996278    3.43618463249995    4.96556370145276
H         4.71409602399723    3.96818015149286    4.50070947061482
H         5.57022525254969    6.12100986554624    3.92117290834045
H         7.20743961921801    5.59883232468819    4.40027352782762
H         4.58750249432909   -3.29374763214643    5.29511069898339
H         5.19651708032743   -3.02564374837687    7.67676426720823
H         5.77740969241575   -0.78698723072522    8.54445906799869
H         5.74116343230579    1.17140461952237    7.05123380393098
H         4.71803738003033   -0.88832203804399    0.50650143730854
H         3.06360982648671   -0.50419076402154    1.02052793061158
H         2.69242335642718   -2.81001774571803    1.52043395188272
H         4.37692380069524   -3.19436414743831    1.07920671684235
H         7.62829995048169    0.22155704863729    2.05233907555212
H         8.75092818723451    1.82551130381211    3.35333762575365
H         9.13041035217416    0.14828851452656    3.83899233534028
H         7.90878166285052    1.07760099934780    4.73496097553841

