46
CSD_code = HIMLEU | q = 0 | S = 0 | Stoichiometry = C21H21Cl2PRu | MND = 9
Ru        8.15797903914243    6.12490635213070    9.28919640608364
P         8.43099553940318    7.72467785860565   10.86087068634141
Cl        6.53966908915192    5.21180789068428   10.73710677897967
Cl        6.54732490971899    7.68664516058970    8.56220135377665
C        10.25835271087295    5.29188921064246    9.32710786728409
C        10.19372680809284    6.41470338864879    8.44748026631792
C         9.27024211240025    6.37925988331916    7.38321925324483
C         8.43573412192403    5.24911743725000    7.17418911565119
C         8.47641075564277    4.17838791758640    8.06472920258929
C         9.38369075939803    4.21002383241256    9.16056335234928
C        11.14204701687447    7.57175530591305    8.61127393541352
C        11.02154988223255    8.30190029653508    9.95803952871833
C         9.64950707786602    8.93804032270014   10.19809347624047
C         9.18860901312734    7.18572181574924   12.42598340012092
C         9.30689512117147    5.83000559126794   12.70464206715740
C         9.87284118329505    5.41326236259244   13.89723277256401
C        10.32319152299359    6.34800263454523   14.81408085273684
C        10.19268970748342    7.70219229877356   14.54606253557643
C         9.62290012077551    8.12282429752769   13.35935644343414
C         7.04510053931494    8.72060968807995   11.46676000720857
C         6.23612712769253    8.15088187169426   12.44748485540756
C         5.13931756653248    8.84441089277697   12.92341152437621
C         4.84585123117515   10.10421830447102   12.42706451278875
C         5.64535274328495   10.66729967265475   11.44601919922631
C         6.74152846316999    9.97895542532492   10.95869389850905
H        11.01909613684058    5.26023884617027   10.10010284895058
H         9.23952711323621    7.19652347078405    6.67053666019676
H         7.77904315085176    5.22362828830994    6.31246981904996
H         7.85448725477615    3.30463893909973    7.90896681129929
H         9.45275306669733    3.35053608548553    9.81834174873468
H        10.97116200565829    8.29128622295505    7.80654393625554
H        12.16745688989285    7.19892248175252    8.51620631586186
H        11.78093465576072    9.08755257240911    9.97036169157126
H        11.24841302653990    7.61406366693513   10.77807370894428
H         9.23732078579037    9.33174340805495    9.26382532535090
H         9.73777758424836    9.75901344418853   10.91432582815165
H         8.91935879397681    5.11175309945096   11.99314105826284
H         9.95634107907693    4.35849900926689   14.11390200851464
H        10.76653686668800    6.02389361872760   15.74404502010767
H        10.53064628739053    8.43062132281213   15.26866133737142
H         9.50108382899693    9.17848090930124   13.15943284516377
H         6.46177076304372    7.15674764800228   12.80875341110511
H         4.50742523053545    8.39747907753785   13.67651090564861
H         3.98594937965583   10.64371353400326   12.79632188216119
H         5.40655519135733   11.64292663519558   11.04843303022990
H         7.34122674624904   10.40823800708434   10.17068051497260

