58
CSD_code = HIMLUN | q = 1 | S = 0 | Stoichiometry = C29H22AuN2O4(1+) | MND = 4
Au        3.71491640426352    3.80880314109158    4.04603184876416
O         2.58261074592512    2.15053328473493    4.01459958963613
O         1.33920305651962    3.71752905126184    3.13463367050602
O         0.15490243978296   -0.56846644298511    1.88733006363385
O         2.10919690342762    0.42718109106943    1.67253765410105
N         4.68527770917481    3.42878614057427    2.18289135510175
N         4.90224614026742    5.40429428344722    3.96838394157793
C         4.46551549802602    2.43735389516295    1.33586524015604
H         3.59229674544935    1.82075116963670    1.51606622967908
C         5.32070791298825    2.18337407958635    0.27171433797831
H         5.10543497399304    1.37062542561284   -0.40196539608158
C         6.43833109217768    2.98497355304995    0.11572728389622
H         7.13240698108739    2.81420757438957   -0.69289202156614
C         6.66572257154315    4.01656661887919    1.01670757224176
H         7.53823863426274    4.63807576840914    0.90532224052169
C         5.76203608578807    4.22375847045821    2.05399726096763
C         5.86981986159800    5.31653118694530    3.02915068144241
C         6.87894348032556    6.26872868799341    2.97567247112950
H         7.66342543873302    6.20128477239785    2.24218201953398
C         6.86619866603131    7.30981352610332    3.88807629404112
H         7.65980469160712    8.04072037536338    3.89217316865898
C         5.80583845322949    7.42694539812728    4.76638196764548
H         5.76980624242040    8.26459391042418    5.43910862554847
C         4.79797408859864    6.46227635540930    4.77694565852432
C         3.53865390478950    6.62467588831253    5.61091169444849
C         3.30465097966228    5.40284765516285    6.49566220570076
C         3.07755785447391    5.53602868465325    7.86462335001302
H         3.09884559499153    6.50685582805987    8.32850648783444
C         2.81523952902019    4.43895686279656    8.66421474723829
H         2.64253531705389    4.58112048237035    9.71980759919983
C         2.77115390486896    3.17329271171437    8.11478580710386
H         2.56566797514594    2.30867588783392    8.72567530647619
C         3.00179450795147    3.01841861189986    6.75710457512239
H         2.96774877290017    2.03331891875887    6.31966296067023
C         3.26495413202734    4.11974232555122    5.96466367820728
C         3.58477536815742    7.92506168594982    6.42244527448773
H         4.39181835769138    7.92756440768641    7.15077214298444
H         2.64189954452090    8.05738202969123    6.94547094741577
H         3.69673435596585    8.77732193899825    5.75654725813536
C         2.34805342549333    6.77100383489303    4.63486618481354
H         2.51131905410763    7.61608868204757    3.96921813408346
H         1.44455449597034    6.95496329184487    5.21035658748603
H         2.17973947317437    5.88264946195777    4.03289401990657
C         1.50798516532385    2.53794453306707    3.42281608648847
C         0.52676456922910    1.47064538562150    3.09399877529370
C        -0.74208245741448    1.46090040780067    3.55882224033314
H        -1.09809462622382    2.24529387944271    4.21158457954309
C        -1.62103277357865    0.39229623221408    3.20445146625763
C        -2.94421928734161    0.29468985147669    3.65516072273492
H        -3.33386198051152    1.06948041887858    4.29768700670271
C        -3.72672546979307   -0.77182987868618    3.27972713291565
H        -4.74529248479014   -0.84351483721185    3.62736196712953
C        -3.20845912175669   -1.76532276891396    2.44975671701066
H        -3.82969994918458   -2.59856160524950    2.16079231399986
C        -1.90971551404790   -1.69411349021214    1.99209178420864
H        -1.49336275098435   -2.45181504393346    1.34819288461185
C        -1.11216532874794   -0.61485527142044    2.36534957409903
C         1.01331064463089    0.43005167979998    2.18607602969810

