76
CSD_code = HIMMUO | q = 0 | S = 0 | Stoichiometry = C37H32N6Ni | MND = 4
Ni        8.68421313945052    6.16348852548205    6.22402662126649
N         6.96232133476496    5.55171097455987    6.87800024126783
N         9.14428270945930    5.18408185873715    9.09406421638223
N         8.06984715960090    6.89012857348694    4.57467287499577
N         8.75048762916590    7.18684056638018    3.50057153477694
N        10.36640240623876    6.57143684416577    5.65977670771868
N         9.67564048325037    5.57109234590984    7.88032215425833
C        10.90273241188465    6.99873314253680    4.50463556898567
C         6.68649527188004    7.02917795675756    4.37219748689179
C         5.88569160545211    7.66540148014033    5.32324233860077
H         6.35358091371416    8.09236868597088    6.20113896830765
C        12.58001350323472    6.82017169941935    5.99619413280602
H        13.54314556846598    6.82153679006497    6.47131258570351
C        11.36373246500223    6.44129130686572    6.59129263231688
C        10.55514385432090    7.62167324230031    2.06133137890414
C        10.04080132926164    7.24508374979918    3.38061857512878
C         8.47598686888922    3.98880623770263    9.25067649542101
C        10.95484625912258    5.90994615680179    7.83376856171536
C        11.89720853138414    5.73807950508598    8.94872073866506
C        12.29123923220305    7.18217588357750    4.69619338481889
H        12.98306128817390    7.54817377479929    3.96329396436652
C         4.52201632985936    7.76801340341907    5.13354358323345
H         3.91264998855150    8.25702449872580    5.88055095507298
C         6.47356514554418    5.93924218217153    8.05517224632562
H         6.97755214264037    6.76310317576498    8.54471089953737
C         7.90546371470035    3.68443077901472   10.48919515180899
H         8.05008512555104    4.36177146153444   11.31928455031043
C         4.73085076793884    6.67883822503788    3.01049773609993
H         4.28169502924081    6.30436512414106    2.10182212338277
C        13.65438831538195    6.61926252411069   10.33889255350308
H        14.30052049969638    7.44067908009590   10.61426747497097
C        11.73233782365045    7.07923720327425    1.55016691818332
H        12.27353507433602    6.34060412910017    2.12213875569450
C         6.98193448641620    1.66227559052989    9.58183800582236
H         6.39914497277552    0.76294191457862    9.70971646460642
C        13.75624816102228    5.41143569194885   11.01992051974760
C         6.09370900513846    6.56364174573044    3.19554013910463
H         6.72090245064497    6.11061999973732    2.44240144948396
C         8.31277049276982    3.09685679725412    8.18900252534472
H         8.78402753042434    3.31306303679867    7.23920941227206
C         5.37567541615042    5.34327361910364    8.64892929496582
H         5.02488672332645    5.69289564453113    9.60688323058032
C         6.34584517695159    4.55242278243554    6.24575304942923
H         6.74883878993248    4.26257216804813    5.28287032266215
C        10.30878978475179    8.89050298155329    0.02545683760419
H         9.74469919118805    9.59637169647394   -0.56868528902029
C         3.93599731313549    7.26524670023229    3.98298608522632
H         2.86891197841934    7.34510959917913    3.83780375501093
C        11.99698169834113    4.52471336410337    9.62896367027040
H        11.37081388530271    3.69120677057439    9.34213011567269
C        12.74210762159296    6.78343232588775    9.31523389281714
H        12.66732231609641    7.72827211047350    8.79792798629105
C         7.56452158337176    1.94947221150706    8.35866046419610
H         7.44352713068867    1.26758008112593    7.52938300083685
C        11.49638489003131    8.37137321870828   -0.47417567175352
C         7.16621234852836    2.53106541109961   10.64666631495499
H         6.72865717187588    2.30622539355960   11.60852731836613
C        12.19369915405265    7.45402277425354    0.30378318905775
H        13.10956232745897    7.02415016087452   -0.07860978431052
C        12.02521996938424    8.78585107318796   -1.81453923914793
H        12.29665496410831    7.91354717403075   -2.40736172280921
H        12.92023585376762    9.39699949376381   -1.69352851278271
H        11.28618743568293    9.36566871911703   -2.36228754883451
C         9.84218470095106    8.52157264156360    1.27146769328317
H         8.91891075157460    8.92983922869014    1.65411784351535
C        12.91707370872545    4.36812204238963   10.64702529472290
H        12.98651859955201    3.41869465848433   11.15871436202746
C         4.74464941045991    4.29928311087622    7.99443134293830
H         3.88729875173480    3.80970669770759    8.43031667313690
C        14.76673545433284    5.22848893293559   12.10990178397172
H        15.70468039128328    4.86558496545837   11.68778628619492
H        14.42345242480228    4.49927556492639   12.84031377918851
H        14.96858629767322    6.17002760754615   12.61555667502305
C         5.24016891901302    3.90365255292188    6.76301163349736
H         4.77973755281233    3.10106818830492    6.20953219060349
H         9.60199929172801    5.56170247085373    9.91893105480348

