59
CSD_code = HIMMAU | q = 1 | S = 0 | Stoichiometry = C29H24AuN2O2S(1+) | MND = 4
Au        3.54130851639296    8.41668780780447    3.57817638425508
S         4.25017044554515    7.78010448330116    5.68656006547815
O         3.69847903552970   12.73489136023896    6.42869814654890
O         3.50387729563015   14.93223493727574    6.37166218927429
N         2.43994541004903    6.61515980753320    3.12160337109085
N         2.66867752212143    8.88762237500983    1.74609277102985
C         2.27424422459184    5.56227380786042    3.90542638602780
H         2.59338463964793    5.68575674811160    4.93111773636594
C         1.73178473188567    4.37453834326462    3.44264362841904
H         1.60665831368022    3.53834726760890    4.11036515678656
C         1.36280959218475    4.29852907017663    2.10866942008074
H         0.93977153754171    3.39135919621291    1.70568329685274
C         1.54074678437898    5.40413615338349    1.29083185101084
H         1.25256420791969    5.35402187754070    0.25437198813513
C         2.08831606308477    6.56751190196942    1.82516056848861
C         2.25455198816122    7.81052981084698    1.05673315426174
C         1.94685224670908    7.92881147465145   -0.29268383272499
H         1.63291744553696    7.07691051759001   -0.87068042933076
C         2.06636010223758    9.17273822043565   -0.89235445938281
H         1.87175852407383    9.28515254601433   -1.94768370981499
C         2.39621214048247   10.27722590360084   -0.12671824937261
H         2.43680282553680   11.24850323313282   -0.58646428030625
C         2.67656180307468   10.11380220051653    1.22965717309035
C         2.90147777666421   11.28149982036321    2.18106718946183
C         4.28107892686741   11.18157783293096    2.83544285609994
C         5.13540997561295   12.28444743083130    2.84554910306236
H         4.81525199883659   13.22042090706251    2.42300890820086
C         6.39975860192999   12.22257109422008    3.39876991243791
H         7.02330728931143   13.10305486801390    3.39633764343339
C         6.86482414177444   11.03758467750745    3.93148188336224
H         7.86212598958808   10.95733656782151    4.33358575944799
C         6.02580609737581    9.93605340063493    3.95469310864211
H         6.39051357899385    9.01619837734002    4.38247734785465
C         4.74041975823367   10.02303680593992    3.45223913629973
C         2.70548917072498   12.61394255055737    1.44833284704758
H         3.46920582880761   12.78445122790671    0.69382353006771
H         2.72895250107903   13.42976324561756    2.16566929603027
H         1.72583563090632   12.63675841618501    0.97647906792395
C         1.80421363631286   11.22998602614896    3.26646136958623
H         0.83160915670403   11.42793846413567    2.82081813644658
H         2.00447163629438   11.99576588473936    4.01261388838912
H         1.75508469575083   10.26144761697538    3.76190985072492
C         4.63109745179795    9.26669734965186    6.54578581154903
C         5.67615954373898    9.27635961844056    7.47101008239761
H         6.19714665162850    8.35813791247391    7.69058911522826
C         6.03173111944618   10.45286155279524    8.08839412729375
H         6.83529675170685   10.44689361803625    8.80685098886644
C         5.39870788537030   11.66168017640167    7.77217871389618
C         5.75581746106774   12.94787637455763    8.32678779252823
C         5.10249866162786   14.04290173557298    7.87529433178627
H         5.33050120165266   15.03052796259664    8.24420854670513
C         4.06574600094084   13.98994664057948    6.86595050029203
C         4.34311583549114   11.62730859768508    6.84624668648129
C         3.93217452472180   10.42781684954918    6.28209034631419
H         3.09202146575327   10.43806017945714    5.60913297567901
C         6.82013464385453   13.04305626592105    9.36674726642934
H         6.55749917549803   12.43496513494067   10.23106875610662
H         6.94723275488910   14.07225213758101    9.68905313434170
H         7.76882708305119   12.67937363476146    8.97468166327246

