64
CSD_code = HIMNAV | q = -1 | S = 0 | Stoichiometry = C32H26N5Ni(1-) | MND = 3
Ni        2.69909218197941    5.01063032585963    7.64967198899305
N         2.61829255242554    3.19821628074751    8.00213083126542
N         2.74582544961330    6.82313171786866    7.29397626420138
N         4.58369731855581    4.97414200904725    7.79812798908132
C         4.75455817595135    2.63633183743733    8.58554872075240
N         3.48534362165113    2.35775467480179    8.53658072092750
N         3.71737901985488    7.62849521322529    6.90589866815772
C         5.60084413623125    1.54325972532395    9.08074665222854
C         0.73434799616234    1.73858666572365    8.59273344737980
H         1.36117043317945    1.14479572328227    9.24103301760997
C         0.49234370057680    6.54631742990686    7.94360244741835
H         0.83717237854618    5.75409639811335    8.62129941481568
C         5.33280831596399    3.90284328644773    8.19818227167118
C         6.76483183800930    1.15255729357177    8.42243214733540
H         7.05689981609239    1.65880826037665    7.51481067805887
C         5.73420481539305    9.10383753885465    5.53956296103676
H         4.89792209777086    8.86230815016777    4.90068503008438
C        -1.25070792201006    7.93886734079408    7.07150724665425
H        -2.29810918277937    8.20097228842592    7.01227419023362
C         4.96714834314609    7.30130225318727    7.05548018226915
C         7.15140884495361   -0.59762196842691   10.03737554828419
C         5.92047352091493    8.36182709516667    6.70589342178719
C         6.74263001822250    5.58673931020295    7.74016433036545
H         7.63538977038881    6.16199118353744    7.57985939906203
C         6.68120946252468    4.27673977742405    8.19023565073350
H         7.51443316511627    3.66674696121951    8.48573054787671
C         6.98401903776142    8.70500187364871    7.53717803291943
H         7.11572615089506    8.18444808591815    8.47364560460978
C         5.21096051179348    0.82060883496843   10.20763832027825
H         4.29681151445538    1.09890033833602   10.71039817630250
C         7.52713284477127    0.10320185561348    8.89874227033456
H         8.42781996578318   -0.18492238764568    8.37126037739039
C         1.45705219142258    7.25849412341980    7.19831295167250
C         1.03299482584666    8.35403663513997    6.42684363225813
H         1.77425916551672    8.92143499093681    5.88427626396241
C         5.42784546897279    6.01385110225344    7.52326815137708
C         6.59905524572444   10.12421020897569    5.20143483696156
H         6.44199868770241   10.68352971303338    4.28778758862502
C        -0.30402297777595    8.67908241838074    6.37369703240412
H        -0.62442711468355    9.52152142783987    5.77307135908766
C         1.31410389950753    2.81377414457508    7.89762403187883
C        -1.40598827736473    2.24063074322517    7.60785126426667
H        -2.45977898873288    2.02044051578129    7.50630195546056
C         7.99731609866665   -1.71770610952949   10.57138024800358
H         7.37545580300323   -2.50793867125871   10.98897814515500
H         8.65159665804166   -1.35152506400233   11.36480201767138
H         8.62247834963051   -2.14020431207177    9.78705852974400
C        -0.83889249644818    3.28633130248713    6.89075019995812
H        -1.44982774821885    3.87733077970708    6.22066422461230
C        -0.60683130477348    1.46647649010929    8.44039989128200
H        -1.04817106830367    0.63980237191206    8.98349410872607
C         0.50346060512977    3.55993094745928    7.01479622468292
H         0.97861541334329    4.33526200112853    6.39940770914453
C         5.97503817461705   -0.22797961924915   10.67851355097502
H         5.65843391790634   -0.77128316889559   11.55990163197620
C         7.84899765239042    9.72668758797583    7.19282091951007
H         8.66893433758157    9.97669017852439    7.85445092655199
C         7.67754507789360   10.44596203492911    6.01809725122759
C        -0.84138806030043    6.87289790921290    7.86240846553805
H        -1.57019298043744    6.30778172816834    8.42897498671739
C         8.62560311292295   11.54390158921770    5.62923746358989
H         9.22358597010021   11.24215855392885    4.76794405573255
H         9.30158663689210   11.78159288415599    6.44800982780327
H         8.07888383031010   12.44570918943327    5.35493400330872

