55
CSD_code = HIMQOL | q = 0 | S = 0 | Stoichiometry = C15H23B10CoO4S2 | MND = 8
B        14.57163098744359    4.03203670242589   18.77904242544504
B        14.76069199336027    5.70344187541865   18.22867665658719
H        14.01213946047805    6.50608170581889   18.64462988351929
B        15.12317440110102    5.70358485072200   16.49125934987532
H        14.64393198157662    6.52614982866809   15.81405689488572
B        15.15615791085470    4.03029724525460   15.91719146720773
B        16.08328156657909    3.18401673523504   18.54904799209217
H        16.29644369588539    2.21835879425527   19.17625298834766
B        16.06984549295818    4.88306436344768   19.10911186039412
H        16.37401597095749    5.18481150484697   20.20066102575456
B        16.42862695865774    5.91009835669263   17.67896885632841
H        16.99033589739345    6.93487717598736   17.78730342926676
B        16.67526310095975    4.85439410998090   16.25395807072701
H        17.41547416285346    5.12782033257474   15.38554395253552
B        16.45314227612148    3.17819389562034   16.81365720044256
H        16.90873713615284    2.21404994786362   16.32718851409821
B        17.25212962812302    4.33721208403222   17.88414670894681
H        18.39889618171244    4.25701478788595   18.11881923774663
C        14.84771777642297    3.09112052105200   17.35394202570590
C        14.12388702174993    4.51048528385194   17.18379141554552
C        13.25199673063339    3.55018403221329   19.54899621538731
H        13.01618734348267    4.15186697289688   20.43288140936579
H        13.33990248506057    2.52089237380706   19.91399295157357
C        12.06636136791937    3.62914136287308   18.59780830581911
C        10.78420363231835    3.98998504634443   19.22314060592358
C         8.71155837102342    5.04275301888124   18.83544030384847
H         8.03032870894989    4.18845382279358   18.84657105067674
H         8.34327206441348    5.81014522659303   18.15871615410340
H         8.80181682313096    5.43497015626759   19.85057150507725
C        14.64627908861158    3.35878615115588   14.59111563447088
H        15.25741623396090    2.51367481765688   14.28656367979036
C        13.62386579837631    3.60930424254362   13.76001474725503
H        13.46651923355548    3.00041173684223   12.87942420015693
C        12.63769299329617    4.67871004735878   13.89203972167737
C        10.76144383555055    5.65181186067642   12.88071400425823
H        10.14922123460816    5.55403953511001   13.78044669609045
H        10.16125893406726    5.49114303119211   11.98887703624196
H        11.20738744495387    6.64851098002716   12.86954991792807
C        10.73079745627496    0.58144137645529   17.24132815800674
H        10.92794559609326   -0.26905418411399   17.87449035206111
C        11.22181635987603    0.75118269926903   15.90723395710562
H        11.87288890135404    0.06244304461232   15.39194937307696
C        10.60473230471818    1.88306861191147   15.35282458032862
H        10.69619097923496    2.22381454678328   14.33443139164523
C         9.74009739230418    2.42439991067030   16.33852343411619
H         9.06860732616170    3.25478326724697   16.19076672803003
C         9.78159227620717    1.59397708202301   17.47979041439373
H         9.15996911286156    1.68162863269065   18.35541016994618
Co       11.75820923783525    2.38547962524019   17.09316542945309
O        10.47145961539393    3.78361028077125   20.37107905804812
O         9.98327085725243    4.65151725767547   18.34852004888514
O        12.55582304931285    5.49633813820640   14.78710077418073
O        11.77319173038554    4.65888593688336   12.86372540811037
S        13.86550810140841    1.60107690489825   17.14412145844235
S        12.32976377805348    4.47631235191180   17.06742516907179

