78
CSD_code = HIMRAW | q = 0 | S = 0 | Stoichiometry = C37H34N2P2RuS2 | MND = 6
Ru        5.80257154625286    6.59531594192337    4.73263928117704
S         3.92573910283225    5.17425339885136    3.99303008643386
S         6.89632129422504    8.75772259002529    5.20059041260017
P         6.45857458093402    5.90822202766382    6.78419315082060
P         7.55978991425147    5.50106496289333    3.79265478093766
N         5.06483380495377    7.19020224512078    2.94060828884007
N         4.51585451036991    7.92430877568239    5.54652612025037
C         8.26556549309306    6.07692384154725    7.12220849217222
C         9.08846300438978    5.24334584919613    6.14023853759953
C         9.10608417139149    5.84977755378831    4.73456397433199
C         4.06490565624946    6.31484470164674    2.71477869780293
C         3.27452807275951    6.38155900622893    1.56709257721810
C         3.53178910924671    7.38350863173007    0.65595680039420
C         4.55131793689574    8.29806109893194    0.91256157569768
C         5.29109293544994    8.16617922878628    2.07173378829872
C         5.28150412890121    9.01745298196286    5.72115137379652
C         4.77413950751707   10.19257028524353    6.27436282101124
C         3.44819298518912   10.21649054462397    6.64885171370708
C         2.66295969765149    9.08148780108046    6.45894520008015
C         3.23844975555486    7.95544633910297    5.90395240283799
C         6.20876014379919    4.19415859869129    7.34010524884013
C         6.42736228172467    3.81918699749441    8.66272055148837
C         6.27874728269001    2.49684142868734    9.03480908335342
C         5.91871957978065    1.54337745497329    8.09369243329611
C         5.69197337194070    1.91521505216041    6.77958514430583
C         5.83130493916586    3.23992359357833    6.40561547398720
C         5.68394362725195    6.84891675933638    8.13153466178561
C         6.22638207294134    8.01733172608908    8.65545045294102
C         5.49862446640129    8.77270101991221    9.55835208466250
C         4.22606979122009    8.37804239882421    9.93425415737477
C         3.67398256953576    7.22268644529363    9.40318986056729
C         4.39487938316221    6.46647936620741    8.50024698579251
C         7.66839529455466    3.70733556869012    3.45465226297459
C         6.51136155780589    3.09404175214318    2.97593682088034
C         6.49516873063394    1.74388779580901    2.68201724309713
C         7.63825440888637    0.98411833783871    2.86630121090471
C         8.79327435131522    1.58524445918357    3.33633846192259
C         8.81394227532667    2.93840926704659    3.62662810426556
C         7.96141625036976    6.19480301806162    2.15414506621376
C         8.44682217791326    7.49896815098174    2.08077002632028
C         8.64924946826319    8.09995816003824    0.85239442062096
C         8.34925090639881    7.41729897217912   -0.31526587205568
C         7.84693797443536    6.12884937981669   -0.24866488837111
C         7.65180204295465    5.51919529167692    0.97762939238205
H         8.53616865148521    7.13265791788477    7.02565890541664
H         8.45263357668713    5.75087990768178    8.15105605891799
H        10.11682898661145    5.18302689936769    6.51068330193221
H         8.68395348785738    4.22545258774044    6.10552924588827
H         9.96281436908762    5.49213345797538    4.15508307210622
H         9.18315068121843    6.93898923844024    4.81192977958341
H         2.48987631807320    5.65606111015079    1.42399930417636
H         2.94332686258159    7.46318960208413   -0.24612982211648
H         4.76755982901483    9.09905323602022    0.22455480469079
H         6.09024429541544    8.85575997718621    2.31671393843437
H         5.42655340304072   11.04209347238224    6.39740264129681
H         3.02101330418615   11.10734358555655    7.08477322762905
H         1.62253738015540    9.07143498955147    6.74036503968421
H         2.67041473730087    7.04656482074208    5.73964300079870
H         6.69963154178500    4.56600519480079    9.39719194896902
H         6.44387192186867    2.20517024936459   10.06223331951036
H         5.80876987094112    0.51063290155058    8.39123588406129
H         5.40419606380129    1.17740968738418    6.04518959690072
H         5.63540319735799    3.55380027343641    5.38847446252175
H         7.20986844585615    8.34522907605802    8.35095970425889
H         5.92495364021024    9.67918418808647    9.96350034902618
H         3.66055128415937    8.97436712325138   10.63529959082125
H         2.67681965889886    6.91896274425859    9.68749265089243
H         3.96994488153972    5.57057494396611    8.06389212642792
H         5.61354823901390    3.68655281492511    2.84974082430068
H         5.58948317117338    1.28457645022020    2.31366990853948
H         7.62987309587274   -0.07314857093298    2.64490183666938
H         9.68820112119596    0.99639387847597    3.47833134004620
H         9.72944673668086    3.38196307128850    3.98595704886786
H         8.64635728815084    8.05117983411966    2.98902234446733
H         9.03202973877831    9.10954365754938    0.80578037343830
H         8.49974103592535    7.89092198802724   -1.27437832852749
H         7.60248001697501    5.59500497629829   -1.15597320576494
H         7.25935101031663    4.51272591442152    1.02093726262130

