76
CSD_code = HIMRUR | q = 0 | S = 0 | Stoichiometry = C27H35BN7O4PW | MND = 7
W        10.63810648815393    3.36186003655750    3.83848190378426
P         9.32921903393490    5.03692041456134    5.14465169095305
O        10.31765375728587    1.01829692592855    0.49181709514487
O         7.25129243362675    2.09460449316119   -0.02889089680005
H         7.80962199660519    1.31531922229955   -0.13021222844983
O         8.36533770475491    6.57142988212595   -1.27651109204209
O         9.45719795081153    1.15752641702638    5.40831525383579
N        12.12396950737510    3.65397386434454    5.37039766871267
N        13.35707548265976    4.05115880522158    5.05069185851479
N        12.29973615438460    2.18956413544480    3.07189344588431
N        13.51440525009328    2.74831260485876    2.99467196344540
N        11.59207060729289    5.05892919506678    2.83852797896330
N        12.92184898313455    5.16777042042344    2.86977696034270
N         9.93028189036290    2.01880888571196    4.73363841862757
C         7.35637683338372    1.51400129572942    2.40379784864737
H         6.70398274919607    0.95136014841778    3.07544334762439
C         8.62606662290196    0.72267555716876    2.15071914513343
H         8.40866723135500   -0.19234903953416    1.59033513011859
H         9.04529852408454    0.42279496858837    3.11296554085999
C         9.66639758314391    1.53272738984259    1.39439878761157
C         9.82216149364496    2.91943643194596    1.78078721227361
C         8.83828374074866    3.62310756226758    2.54545098126413
C         7.51556778618454    2.96984201214475    2.87913951896301
H         7.26740621006707    3.12715230399467    3.93408134767409
C         6.34854241059867    3.36312484133141    1.91170850187022
H         5.40423120119824    3.30344437251804    2.45994978081179
C         6.54891636792456    2.00837530844865    1.17624673081603
H         5.60694445952521    1.46354091822395    1.00416508381778
C         6.41248736024750    4.68766326251936    1.22388057240486
C         7.35126855090888    4.95297795779107    0.23176802482970
H         7.97340050042120    4.14645193938264   -0.11138719310748
C         7.45816878925968    6.22360033245517   -0.31833893048837
C         6.61889557113781    7.24413206794813    0.12895108409377
H         6.71766718078766    8.22626425603979   -0.30582922919409
C         5.67950356773627    6.97870166588593    1.10358830868703
H         5.02332927131381    7.76732434688989    1.44193949741134
C         5.57556848552939    5.71176209684583    1.65338094977755
H         4.83770607419505    5.51958319359581    2.41959506147301
C         9.22472962174013    5.57307217597210   -1.77380452260009
H         9.88675932022399    5.18625339797743   -0.99186535060805
H         9.82359732199735    6.05701193264130   -2.54404162595787
H         8.66623257723697    4.74244915869537   -2.21458537992453
C        14.11828412897908    4.10727193971104    6.15367585049392
H        15.14673135773505    4.40171247247239    6.10576705429207
C        13.34414447191385    3.73265211715556    7.23193004010859
H        13.63823338702572    3.66653201654935    8.25883547539990
C        12.09490532767521    3.44988217891656    6.68198032038074
H        11.20623214829926    3.09272136207903    7.16866554620242
C        14.40444595568760    1.84069875487630    2.56079200983623
H        15.43617772917020    2.09620761565707    2.42802880497252
C        13.74160630513166    0.65190083977384    2.35458836819652
H        14.14700073910443   -0.27474402276642    2.00615026698893
C        12.41785286658055    0.92440247163027    2.69833508628199
H        11.57670339132043    0.25991621377111    2.68509368912501
C        13.31358514414506    6.25662349876567    2.19224255098365
H        14.34932732634738    6.51275760501206    2.10219080098553
C        12.18862648017508    6.88390988897584    1.70059121489129
H        12.13470121963008    7.77712307156474    1.11359230232107
C        11.13103416412640    6.08807858520671    2.13639774090401
H        10.08181066790208    6.23054469427816    1.95481255293099
C        10.36313592541910    6.30423258721585    5.99358191007102
H         9.73472422603931    7.00101712853172    6.54726889661844
H        10.93331533278642    6.85555043708577    5.24635430649322
H        11.05770657985572    5.82409887555080    6.67991535818979
C         8.38372824397123    4.36771862956078    6.56564023959371
H         7.92935006320559    5.17330494183131    7.14199964400979
H         9.04505683499377    3.78791503969370    7.20462480495877
H         7.60875831969339    3.70087127971181    6.19321342681371
C         8.05870162128941    6.16436946186550    4.43690718778067
H         7.26755078018356    5.59799184424558    3.95214124762609
H         8.51485620031187    6.82298334300973    3.70063119250532
H         7.63159456159423    6.77108962226528    5.23505431429278
B        13.79951384662990    4.13582625719243    3.57731550751602
H        14.94367952475146    4.42073196544271    3.49133365231145
H        10.39731459188958    3.48494462505794    1.03901716281684
H         8.68013588941267    4.65610549959244    2.23184122781079

