51
CSD_code = HIMYAD | q = 0 | S = 0 | Stoichiometry = C19H23N5NiO3 | MND = 5
Ni        0.91114074284388    1.56136702088007    3.09234198608990
O         1.39646601109166    2.48979636359541    4.61015542410505
N         2.53530623163961    0.68602199476089    2.96688516787868
C         2.50371991701356    2.45338892590749    5.25583574996129
O         0.57219714209676    0.86786312370088    1.33989937817063
N        -0.71738747225621    2.62194839966853    2.90768391961138
C         2.64622711894708    3.26216307717560    6.41400713510773
H         1.80394126819106    3.87697395534439    6.69308510128318
O         1.33916187487876   -0.54305494753381   -0.17923529526267
N        -1.04663299144590    3.01219023219107    1.66709515450903
H        -0.51198816306874    2.66134525012004    0.88130134814378
C         3.80029545033452    3.26453884467756    7.14833470539940
H         3.87367239487378    3.89082900433597    8.02607787337559
N        -0.22898973737151   -0.27985317659806    3.97451782831522
C         4.88927659464963    2.46668979134665    6.78038447283633
H         5.79278283419876    2.48030445272487    7.37013747733899
N        -0.94239788003337   -0.93531107734062    3.04972731620505
H        -0.97122716929327   -0.57790242414913    2.10428989179829
C         4.79413126185813    1.67463094379592    5.66734402000329
H         5.62717237133476    1.05286555461683    5.36890452167042
C         3.62313998765395    1.64311986741500    4.89082710396683
C         3.55821763951634    0.81386022774486    3.73822429806778
H         4.46074690753376    0.24391103779828    3.50321722673177
C         2.62552294946031   -0.21832334081276    1.83464713047113
H         2.55796830584601   -1.25799359574825    2.17948611159804
H         3.57220275557352   -0.09997134935983    1.29383595324271
C         1.43144666873050    0.03582207599551    0.88481638192482
C        -2.18033986901249    3.73513120168781    1.65660543180712
C        -2.58903281122543    3.82551339297717    2.97119633124147
H        -3.45392686401289    4.33288117779682    3.34601106105620
C        -1.64409616157446    3.10997422655842    3.72316798957489
C        -2.76113064981137    4.28555658158360    0.40650955709073
H        -2.78769062996994    3.52394461625678   -0.37062140615974
H        -2.16099497400330    5.11936764164108    0.04254087956283
H        -3.77061185113163    4.64184111889410    0.58928960159786
C        -1.62952210109122    2.87802759112014    5.18864628427514
H        -0.93435908045591    2.07358104074592    5.41118996003693
H        -2.62625939382866    2.62174113505925    5.54121053593845
H        -1.30080487045520    3.77679048593640    5.70751211724652
C        -1.47380462126930   -2.07458844532971    3.53201475796084
C        -1.08787594146982   -2.14541143227373    4.85438628750617
H        -1.32720925269669   -2.91469671429337    5.55935667374716
C        -0.30713780046125   -0.99984336190619    5.08391529662486
C        -2.30024417081048   -2.97980780436095    2.69453838705664
H        -1.80280244315867   -3.17911972608946    1.74666787776535
H        -3.26757486342220   -2.52522765045538    2.48033496252292
H        -2.46660924842125   -3.91988141394202    3.21247106263108
C         0.36819548501755   -0.57851020618324    6.33904395872628
H         0.95485129045341    0.31607342718107    6.14762528049384
H         1.02540875814480   -1.36685544195367    6.70182911010814
H        -0.36584095015047   -0.36570167289237    7.11503061904271

