69
CSD_code = HIMZUY | q = 0 | S = 0 | Stoichiometry = C30H30BN6PPd | MND = 4
Pd        7.27371094325704   15.69389471563638    5.41286068654827
N         7.19025504837666   18.42284001277683    6.70049174432568
N         6.36521051648671   17.42985306048593    6.36040835986716
C         5.12379329265989   17.82813156627424    6.62138819474191
C         5.14799620396673   19.11737862741820    7.14507580267222
C         6.48778338853921   19.45583809305939    7.17251658001613
N         8.84652895035047   18.13960106612322    4.92856096029875
N         8.38330899551886   17.03328050857006    4.35571500408381
C         8.48512765705988   17.17509215916002    3.03810668472621
C         9.04855120214707   18.41640517975847    2.75374087481039
C         9.25769969105497   18.99732901600224    3.99060180045513
N         9.44519229207218   19.51100324566650    6.95705617748310
N         9.22119441944589   20.73421777297844    6.46000156081928
C        10.00215127887759   21.56560417394796    7.12173366410184
C        10.75942722094309   20.88133325151599    8.08024765375266
C        10.36925849436984   19.57068996846584    7.93791085781352
B         8.72057185413413   18.28690462870625    6.46098106882103
P         5.96202939412944   14.04987035010868    6.18494779365159
C         8.29236894457995   14.09857872758936    4.58029929141964
C         7.36046785397811   13.03025089427455    4.12920116479290
C         6.18307437162988   12.81787596385464    4.86095713504598
C         5.27398835930698   11.83702057320849    4.49472051866050
C         5.53711506601713   11.04109670364852    3.39166234253130
C         6.69541090131466   11.24090988435506    2.65804941833813
C         7.59811405955138   12.22727347601707    3.01844331771366
C         4.40885472679662   15.28779278777230    3.83631398918781
C         3.59516534621909   14.95064303074955    5.04691270851853
C         4.17165306865933   14.35309461217843    6.17979744434290
C         3.39178806600935   14.08216411451695    7.29978494996643
C         2.03882241724421   14.36810303456126    7.30023058495447
C         1.45922277235706   14.93947711084037    6.18066946037531
C         2.23475247033628   15.22894272410445    5.07092385342828
C         7.55940987053156   15.13841556109059    8.60395470641817
C         7.06905390429069   13.73169968086385    8.73813885458014
C         6.31031815935243   13.13459384528837    7.72396835522728
C         5.87297501061781   11.82044478411641    7.86253862541514
C         6.16445848985102   11.09869932714362    9.00471368323912
C         6.90939379291817   11.68564784079618   10.01357786969730
C         7.35697248751120   12.98771947621569    9.87533199374274
H         4.27947323016757   17.18797531444576    6.43776419732689
H         4.31447716014059   19.71321957188267    7.45539534086481
H         6.96846395258474   20.36063806820763    7.48283428860759
H         8.16450957394316   16.39984278754006    2.36241190241256
H         9.26895925541186   18.82950277553882    1.79092701192634
H         9.64970175324844   19.95747755954558    4.25715678850888
H         9.99661435455643   22.61415894809754    6.89261160440725
H        11.47678441635084   21.28654483304727    8.76472734404601
H        10.68169260604938   18.68785352671171    8.45870693890509
H         9.13208526678246   17.28979620676255    6.98476864695950
H         8.97523954346610   14.38247618796884    3.76870511901631
H         8.90657212017144   13.70722959110951    5.41275851821532
H         4.34476685114892   11.72294994948030    5.03758463533591
H         4.82979912160472   10.28170041359267    3.09304563084244
H         6.89120960875100   10.62838347186128    1.78994178414865
H         8.49187135733371   12.37981288716959    2.42973930187265
H         4.70264260006467   14.37714118838431    3.31040017322956
H         5.33626984063722   15.83088358210818    4.11428773630664
H         3.83462136878853   15.90943782461150    3.15236837861738
H         3.85148311395034   13.64498740361810    8.17512455032744
H         1.44137668244536   14.14976120237151    8.17269099201425
H         0.40379355998741   15.16759290290700    6.17296801252712
H         1.77568287273141   15.68694591170677    4.20616542038041
H         8.20029423892947   15.23942408143915    7.70965042197771
H         6.71584858363533   15.82578394321034    8.49619652277570
H         8.13596481153672   15.43310790260465    9.47791140671731
H         5.30205886607344   11.36232669122244    7.06908049353955
H         5.81555385724754   10.08194425514626    9.10518549944945
H         7.14503555649990   11.12762417578622   10.90757098385376
H         7.94218289333722   13.43666529215400   10.66498461830301

