81
CSD_code = HINBIS | q = 0 | S = 0 | Stoichiometry = C34H41BrN4Ni | MND = 4
Ni        2.73393269693791    5.71307731505000    9.96957866967570
Br        3.19016364971916    3.64014458740551    9.39083001723255
N         4.23950847457831    6.03868403989764   11.21412292606199
N         1.05364802218499    5.97604828064146    8.94635902318192
N         5.55068457019191    7.50465184674818   12.26237321690851
N        -0.53372170003760    7.36868074121814    8.23053658171936
C         4.44330488507886    7.32862829659986   11.50175372970732
C         5.23388441802572    5.32909147372286   11.84231072902595
C         5.50211474871261    3.96443988038098   11.92718596128014
H         4.87908718514720    3.24389388671849   11.42549052615474
C         6.59597449467277    3.57132607439556   12.66697684693655
H         6.82444112930970    2.51973015658632   12.74609427117622
C         7.41648721309000    4.49245856552932   13.31998770775806
H         8.26178235669616    4.13812265522958   13.89059579850696
C         7.16440346994367    5.84709900291350   13.25614843861120
H         7.79454664474922    6.55613870352059   13.77171711443186
C         6.06627842453059    6.25266353260996   12.51276511677524
C         6.10961008636830    8.72725410768906   12.77531325730309
H         5.96040821087905    9.51984462433399   12.04056736428618
H         7.18637084569293    8.57541107335971   12.89258474498661
C         5.49407363854822    9.09629533045598   14.12903787763877
H         5.55366729825884    8.21892558687066   14.77788686972970
H         4.43666165733450    9.33604830359965   13.99531402423843
C         6.21182947854483   10.26424673196460   14.80334436397636
H         5.82882717409197   10.36315445453505   15.82143781440221
H         7.27876802527487   10.03968546225758   14.87489769496750
C         6.02395917933312   11.59706418465161   14.08152436893028
H         4.95644096323898   11.80530345991916   13.98356649876744
H         6.45020051357308   11.54203801194876   13.07799652270326
C         6.68891222492935   12.73997273907508   14.83844295475751
H         6.54373890435690   13.68131697826198   14.31402701022766
H         7.75763775967911   12.56220501177125   14.93528372016126
H         6.26640597394503   12.83381423795770   15.83625759554138
C         3.46211185334702    8.24976136752494   10.96756664404922
C         3.33352957155868    9.63194496158102   11.09850053935607
H         4.04053520655416   10.18256208874253   11.69396551516946
C         2.29684236639031   10.30736343085704   10.46375116337788
C         1.37143733392671    9.58577491022002    9.71103247724359
H         0.58278917043603   10.11813077532263    9.20569989709111
C         1.46403877653673    8.20328177034136    9.60247196303739
C         2.51930695345568    7.52746212545091   10.22791934915100
C         2.13919649565341   11.82090678099584   10.54265337949198
C         3.18225188797150   12.48147033392533   11.44785000075272
H         3.10244376453380   12.11069869025509   12.46729246546998
H         3.01358364419209   13.55622542125759   11.46963518167496
H         4.19132839353850   12.31197152037799   11.07942191215246
C         2.29057304422201   12.40696078505130    9.13175390931600
H         3.26979807978496   12.16283808396873    8.72524834525171
H         2.19035900844119   13.48987581483335    9.16239403452361
H         1.53663961951244   12.01438564428182    8.45514665939469
C         0.75040036780580   12.16244106061874   11.10182298829100
H         0.61541806662928   11.70802530343806   12.08177932347612
H        -0.04445898248075   11.80799850876822   10.45060894639523
H         0.64429449068116   13.24044313470516   11.20442256073742
C         0.63250438153091    7.24352470401113    8.90890576448641
C         0.13176004066803    5.23211083133130    8.25018262001054
C         0.04615853847107    3.87011358812384    7.96887357648076
H         0.80001762951101    3.18368146148840    8.31487907973631
C        -1.03030920025277    3.43547199563408    7.22687265706438
H        -1.11627008311010    2.38531848873674    6.99422384554293
C        -2.01281200520069    4.31291133853422    6.76537126645044
H        -2.83703811996621    3.92733959703664    6.18432305867398
C        -1.95109773042249    5.66374029288765    7.03723892212627
H        -2.71162376704758    6.34026916719562    6.67707933623437
C        -0.87263327686257    6.11090194699110    7.78537005262177
C        -1.29158162652486    8.56528255607519    7.97956871249271
H        -1.26808879297242    9.19433393250000    8.87368910556074
H        -2.33059817398116    8.27278859646180    7.80670680901158
C        -0.75871638278509    9.33133035967552    6.76527969108583
H        -0.84063327440019    8.69482318402270    5.88134684374647
H         0.29953715187541    9.54946083443849    6.91869221209304
C        -1.54076342863857   10.62351196032657    6.54212015750150
H        -2.60025659061413   10.37719621155273    6.43611182594943
H        -1.44074456824476   11.26855047093883    7.41916580743040
C        -1.08652466133075   11.39174760435251    5.30032953186251
H        -1.08991565169388   10.71888932466002    4.44040937513693
H        -1.80961967421357   12.18573998458090    5.10115066570142
C         0.29563274786639   12.01607995389160    5.45247378694552
H         0.54945297851473   12.58621239731423    4.56226597027016
H         1.05947543016819   11.25550712820815    5.59255744095538
H         0.31693637966758   12.69188023887232    6.30516527181995

