49
CSD_code = HINDEP | q = -1 | S = 0 | Stoichiometry = C12H25B9IrS2(1-) | MND = 7
Ir        5.85080801594962    7.79878489560082    9.10827680461192
S         7.14590946088281    9.60621869508170    9.57046142420618
S         4.38081988826022    8.59368282483140   10.67772779834295
B         6.78698038637578   11.96054045927580   11.30907961356892
H         7.46492169745805   12.55638042147474   10.54126245072312
B         7.65943215092239   10.78692534317566   12.37092658208416
H         8.81484247710469   10.67343592280014   12.15931536379525
B         6.64010059326478    9.36500734569822   12.52664559277004
H         7.02266949247923    8.25923754722738   12.37239723855413
B         5.21374230449055    9.80685719580045   13.41757906334468
H         4.59959072494953    8.96086379943733   13.96554852359862
B         4.34425456421424   10.99437591485938   12.39353137130903
H         3.16528326977452   10.91976609049735   12.29645740225263
B         5.24631518260094   12.50083607742124   12.30422610597640
H         4.79312542182994   13.60002104333021   12.35338756477021
H         5.54511216814153   12.34465577136527   11.05485912087821
B         6.83455696539225   12.17189043203329   13.09982952674616
H         7.45325360255299   13.04131204009512   13.61971449384274
B         6.77823616409905   10.52800675218536   13.85629028085888
H         7.33579291391391   10.25047649534271   14.86343052807477
B         5.30287931330042   11.51498987533579   13.79430902074601
H         4.79868630333206   11.98846764011123   14.75653466068361
C         6.56109521259018   10.35219074427227   11.09723183267243
C         5.22838197441546    9.88471865343446   11.64385043099997
C         7.08239408673858    6.46856174752876    7.74031484981199
C         6.43680326851723    5.64000664328649    8.71053566228743
C         5.02640880672468    5.77208007750502    8.52435848681150
C         4.80368707572868    6.65343469583524    7.42650168447837
C         6.07667280110217    7.08299905983958    6.94136686158210
C         8.55357589378547    6.51580652238777    7.46051334257406
H         8.81792731117325    5.79679012782936    6.67958397816461
H         9.12855651725764    6.27651516447499    8.35250489623978
H         8.85090505333245    7.50761211029149    7.12483026994254
C         7.11491419084157    4.65570319626769    9.61380807489186
H         7.22962377569560    3.69206094613806    9.10824532256869
H         6.53639822799001    4.49495468632937   10.52156831516049
H         8.10420447323510    5.00642843848986    9.90159066358599
C         3.96575624453791    4.95941111649899    9.20273473369353
H         3.07617643104163    5.55992317639474    9.38406568125797
H         4.31709997350476    4.58227206551107   10.16041150289174
H         3.68227509015523    4.10576389862986    8.58024593163152
C         3.47732827654565    6.91355590686963    6.78312215797157
H         2.68466500725303    6.93075339549186    7.52824926012840
H         3.24558443176213    6.12861174055853    6.05704547354648
H         3.47418761661022    7.86877746743789    6.26177533646416
C         6.32671683675166    7.88521706170200    5.70262251693572
H         7.20720475344844    8.51403759685206    5.81949433844379
H         5.47889366548133    8.52783565389176    5.47497027000993
H         6.49254994249117    7.22434552327025    4.84696759351564

