66
CSD_code = HINFOC | q = 0 | S = 0 | Stoichiometry = C28H35AuClP | MND = 2
Au       -1.26344541070111   13.08748982180143    3.95010350124482
P         0.95018992223977   13.28158258717995    4.24472739873790
Cl       -3.50002755800076   12.83465644435834    3.68907432408250
C         1.58684274447231   14.77066881162115    5.07675490719604
C         0.79412908221574   15.37403842281937    6.06366628835917
C         1.20345521008181   16.58085473148035    6.62210333901044
H         0.58094129277039   17.04357634915298    7.37404377802202
C         2.39279919316769   17.17160417365658    6.24084380954987
H         2.70083150527769   18.10522932446757    6.68726315525931
C         3.19124815509459   16.56060594976495    5.28718677284558
H         4.12630086707788   17.01270078553944    4.99059256680569
C         2.78574324901526   15.37622481986003    4.70190847941590
H         3.41021526424015   14.92851656856531    3.94266823963674
C         1.74600722446430   11.90421861251421    5.12213812083633
C         1.02513163137434   10.72750283082831    5.29539863787327
H         0.00198615797205   10.67860129267658    4.94279957287320
C         1.60727020496513    9.64536185736199    5.92964784991802
H         1.04576505980267    8.73228125232937    6.06133547223673
C         2.90746020379916    9.73722317031896    6.39982754959334
H         3.36218420979055    8.89334231114135    6.89671904289105
C         3.62234800097879   10.91404953235366    6.24323646307907
H         4.63213343976710   10.98688190040420    6.61969425159954
C         3.04614418100597   11.99834031303337    5.60687793928216
H         3.59889710350369   12.92129634788400    5.49607288833578
C         1.80485442236503   13.22944558763583    2.60232258889736
H         2.88790769249323   13.26133757648154    2.76153621706362
C         1.33232446056640   14.45750886074139    1.81800180453060
H         1.48003698796244   15.35803224104192    2.42381791947658
H         0.25347761446624   14.35513355854575    1.65818402612384
C         2.02143343871926   14.66540035382109    0.46486333890721
H         1.95408560202836   13.73872968344555   -0.11361440466548
C         1.29795018110059   15.76623268024017   -0.30855492820852
H         1.33791569059751   16.70483194177821    0.24051492564793
H         0.25388022906696   15.50493076470439   -0.46379606698116
H         1.76129308074508   15.91736761603999   -1.28071916510944
C         3.49376735640266   15.03377952171325    0.63582231429619
H         3.59035631429149   15.93640043753240    1.23661245814505
H         3.94904464320311   15.22042225870234   -0.33408324851157
H         4.05269665155711   14.23430345997544    1.11707441398829
C         1.42405860657574   11.90295906544256    1.92543393344514
H         0.66001064968393   12.10099923529958    1.17131778855852
H         0.97064856143392   11.22531585742169    2.65863620520077
C         2.59908138777000   11.16621543305590    1.26985807022764
H         3.18145939680450   11.88087820024284    0.67818729345526
C         3.51618022611759   10.53828884433831    2.31688231793427
H         2.96952585114512    9.80672921866753    2.90891956313455
H         3.91955199862001   11.28507935268212    2.99713379689019
H         4.35096375627330   10.03452819490249    1.83493540244344
C         2.06794590373625   10.08411234998717    0.33202203347124
H         2.88972928218179    9.54513921214295   -0.13354395794155
H         1.45581473231605   10.52015473794144   -0.45410965038249
H         1.45930713353031    9.37176677229332    0.88468242693887
C        -0.45182611962446   14.74090918377376    6.52066125738430
C        -1.66629688674320   15.41350887004425    6.44317424886015
H        -1.69754491466140   16.41561903521233    6.04061217816979
C        -2.82948031252388   14.78000581701773    6.84268728002151
H        -3.77561097551536   15.29212563488108    6.75775019083713
C        -2.78826864094946   13.48702107191852    7.33018115089178
H        -3.70293874674745   12.99290618031856    7.62121105035093
C        -1.57992089379289   12.80770913449416    7.44076985790001
C        -0.41806105195103   13.44737889022640    7.03627188655292
H         0.53767131617663   12.95054126300172    7.14940052987205
C        -1.54434929856853   11.40581612484575    7.96659365962065
H        -2.15863708064036   10.76078827727252    7.33968040874604
H        -1.94761394755428   11.36717299718176    8.97773438491459
H        -0.52807523308803   11.01762629188235    7.97915015018392

