96
CSD_code = HINFOA | q = 0 | S = 0 | Stoichiometry = C33H56NO3SSiY | MND = 6
Y         0.69286960497503   11.79725116202146    5.46723567440705
S        -1.24760665808946   16.05328354742597    5.59998168507746
N         0.53325209095088   13.01113106336625    3.55022961841704
Si       -1.91413669341245    9.75187576960491    6.82798898460873
O         2.75548264905702   10.27270142189398    4.47216246511122
O         2.91019092146799   13.38241860388086    5.84978986146241
O         2.09370068530828   11.36136303908114    7.83545661862223
C        -0.35011237710669   13.67142753858390    6.24330305895891
C        -0.71917042273219   14.35342338451451    7.44781759500751
H        -0.63965848346400   13.92140105143680    8.43609425396987
C        -1.20519696515969   15.60762034640370    7.26217198308358
H        -1.55331865360795   16.30849429501093    7.99726729749318
C        -0.58808409304075   14.47690448413094    5.17135228429679
C        -0.36769898019818   14.14478976098333    3.72673368818093
H        -1.35571508477646   13.94561120263604    3.25754343331827
H         0.02491216707472   15.04103427827189    3.21257478685470
C         0.67500376312805   12.67947693440650    2.19166160654580
C         1.66778897801358   13.30745361864034    1.40447727617278
C         1.81156229301753   12.96973291645160    0.06825052157252
H         2.56284989972435   13.46319283150716   -0.53126801479083
C         1.00042809453990   12.02037156614102   -0.52219388110814
H         1.12065938318637   11.77132052639302   -1.56678243268329
C         0.02348229999018   11.40427010880425    0.23517887692162
H        -0.62200068029578   10.67518634427064   -0.23402171856911
C        -0.15765876606217   11.72060329715056    1.57353420941780
C         2.56817576783436   14.36716933801245    2.00236259323309
H         2.43134084501686   14.32566549848730    3.08850387976390
C         2.16920525377202   15.75811941211636    1.49817331560114
H         2.30778068808671   15.82221290701757    0.42059368686831
H         2.77980088904642   16.52652708702975    1.97052079337613
H         1.12483099187694   15.96892353770826    1.71398659515690
C         4.04735294005543   14.13366425691883    1.67702021877208
H         4.35595472146092   13.12106932428540    1.92644706340070
H         4.66765833113539   14.83567066668665    2.23268500130536
H         4.24116150556445   14.29332134139325    0.61897995356462
C        -1.27211033984959   11.04257770074807    2.34003234330723
H        -1.19892838528801   11.34339774832215    3.39818255678583
C        -1.15145664596269    9.51788786587706    2.27846344176236
H        -1.28983191805585    9.15119425816571    1.26343126705769
H        -1.90703223013279    9.05793653242379    2.91280114353958
H        -0.16886278574331    9.20497188283587    2.62760666888960
C        -2.63590946442610   11.48872322303942    1.80621398717423
H        -2.73034222792229   12.57116825606678    1.85846319176310
H        -3.43617404521141   11.04516154445415    2.39527948076408
H        -2.76276444922933   11.18660737807573    0.76841652948095
C        -0.24947844234290    9.65984931659275    5.95814373241631
H        -0.36918066620898    9.07416071397465    5.03957465146840
H         0.44004212281652    9.08370882851369    6.58792747681189
C        -3.11202780274574   10.89314836111516    5.86246543601564
H        -2.66826531659469   11.87445993755990    5.69731856017007
H        -4.04352128794854   11.03835527078935    6.40126573225373
H        -3.36193562039386   10.47230969424627    4.89353267461859
C        -1.68050009444820   10.50328758324400    8.57568143342715
H        -1.00630310951583    9.90321231987142    9.18005283444688
H        -2.62258552516932   10.57149784665263    9.11027922714217
H        -1.26853110765234   11.50572420833279    8.49987099284637
C        -2.82204708345066    8.07483636211659    7.07307107053915
H        -3.01390225779206    7.59236675599068    6.11950170557182
H        -3.77774730042753    8.20145980734686    7.57245763184654
H        -2.22928332090680    7.38846694615152    7.67038986817059
C         2.92557307143503    8.86820472083180    4.32168023290375
H         2.11188704164325    8.37094346306449    4.84957668625952
H         3.88401140625652    8.56935730136358    4.77379905407946
C         2.93842643756842    8.58184771509224    2.80839971377770
H         2.00731037442000    8.11927037172329    2.48734044402784
H         3.75667368737465    7.91119701809692    2.55064217263612
C         3.11464147897642    9.97179204169900    2.17551493852922
H         3.89755091434460    9.99385855639205    1.42102648026291
H         2.18550087920704   10.31522688647414    1.72252335726500
C         3.45396248443885   10.85372402252131    3.37818933052831
H         4.53692828074576   10.82921929125143    3.58115586789116
H         3.10759585875451   11.88074068847083    3.27661269823500
C         2.83104652663790   14.80073839769434    5.93958572531680
H         2.63875362721811   15.09210404249113    6.98250397892086
H         1.99211329953896   15.12643196750319    5.32535417156278
C         4.19349229518002   15.34469290917589    5.47075968511912
H         4.55614688909209   16.11466127550886    6.14950343356418
H         4.12028883653185   15.77626766099298    4.47524182044785
C         5.10226533855472   14.10513659226580    5.47451849200875
H         5.30433685187514   13.77571750065349    4.45626765547706
H         6.04957944193673   14.27904335859152    5.98047236887719
C         4.24468388922139   13.06376791196904    6.19951378744750
H         4.43874727683111   12.03571477075761    5.89556240238423
H         4.37787068886867   13.15450989824127    7.28782939275311
C         2.71643812983184   10.16156602817082    8.25973329527125
H         3.14235089345157    9.67409077288093    7.38255474149133
H         1.97115877217007    9.49747586956262    8.72044681209663
C         3.76243790632945   10.59058174023552    9.29685695835959
H         4.71361987775192   10.80166547302761    8.80909822182594
H         3.92347441470359    9.81940711168990   10.04652320748998
C         3.15749649305695   11.87341679797125    9.89120548087346
H         2.87801126637860   11.74546529730445   10.93490917587819
H         3.85977433553199   12.70335467973912    9.82959871072018
C         1.91477732421504   12.12790643114441    9.01837136519613
H         1.00894441477444   11.79070653775994    9.53956675578759
H         1.79112169346893   13.17004209246859    8.72212491305305

