43
CSD_code = HINMAT | q = 0 | S = 0 | Stoichiometry = C18H15N5O2PdS2 | MND = 4
C         5.70699534638403    3.63896365284901    3.75088213192082
H         5.31682831253825    4.62627736232963    3.50713999944337
H         6.32422646037683    3.30870601512538    2.90779326193585
H         6.31199080466930    3.70101773094234    4.65134022278261
C         4.59367016157018    2.66641656509725    3.94214200060741
C         4.19179142429236    2.14649137995118    5.13095409259052
H         4.54509479369172    2.39804643827250    6.10969396877249
C         3.10400114533720    1.17181299918580    3.18809871805489
C         2.47942621843849    0.32187182230810    1.12497734950821
C         1.63435990324926   -0.53684377522992    0.29883021943486
C         0.69644967127256   -1.50182688148423    0.60849855950253
H         0.48356542017536   -1.75313321862707    1.63507336387457
C         0.04617719876811   -2.12469218859332   -0.44888894812046
H        -0.69164373394373   -2.88610877552968   -0.24330158596676
C         0.32159987095573   -1.78504247215575   -1.76769409738469
H        -0.20697338970359   -2.28853673512158   -2.56362985895881
C         1.25827255892875   -0.80891469244140   -2.08188040415396
H         1.47275933891767   -0.53318970526033   -3.10182807921709
C         1.91242664393366   -0.19384217139835   -1.03280473361078
C         2.91858268461289    0.86387405415869   -0.97874607785788
C         4.18686268007719    2.51016630616969   -2.00382024346813
C         5.82296317732662    4.16686083444805   -2.70123783716555
H         6.49109330940697    4.80930851924205   -3.23688235272429
C         5.69698142786495    4.03356288785850   -1.35535793768839
C         6.55694668455617    4.69430061900471   -0.33270375579506
H         7.44269487799244    5.11524803352656   -0.80053576079136
H         6.84829669374644    3.95103007811866    0.41788040708833
H         6.00759956605858    5.48291645257696    0.18003063365568
C         3.10420672046334    5.14877074155428    1.32652205211432
C         2.78927322907658    6.60803996223718    1.61829180716800
H         2.59491530048555    7.11793087123881    0.67714125238517
H         3.62427998255145    7.08494584281464    2.12415695799437
H         1.89212333064798    6.66731857598500    2.22821795930541
N         3.94703790092269    2.13887752403351    2.85979019095940
N         2.39339156593044    0.35138692827651    2.42355212212688
N         3.28711476704775    1.05972771667407    0.31614607086288
N         3.32470840563890    1.50120035788308   -2.03868216850188
N         4.74650331529700    3.12802925264871   -0.97487632154852
O         4.31551443143494    4.78781344504055    1.49106583223757
O         2.21488622912420    4.37931770224405    0.94418395732946
S         2.98403456341367    0.93665192711074    4.91549596138023
S         4.74694759901737    3.11739951632097   -3.54364860308453
Pd        4.17202340745905    2.75384850061120    0.93731967300013

