47
CSD_code = HINMAS | q = 0 | S = 0 | Stoichiometry = C21H22OPRhSi | MND = 7
Rh       -4.64099891086396   12.88501202442708  -17.42618350743312
P        -4.47527507641943   11.01562358471434  -16.19549619283540
Si       -6.36787409045963   12.60413195654296  -14.43839507209026
O        -2.89061531713350   11.82388208814775  -19.59697770673576
C        -5.96730818713474   13.73656308153366  -15.89270833269316
C        -4.89604307019588   14.68393513143553  -15.97302055265092
C        -4.88118619684380   15.20300673195651  -17.27209851963837
C        -6.01702421555833   14.67090179202166  -17.98040650193033
C        -6.72050477917224   13.83242175289254  -17.10808267333789
C        -8.21636646646953   12.65187231813274  -13.97889162602323
C        -5.29197170840138   12.98460732215386  -12.91208277331821
C        -5.94195048592762   10.84139899652283  -15.10790087556116
C        -3.11308811274952   11.04736504205816  -14.97977707021125
C        -2.91626077286699   10.00087979127046  -14.08577857012140
C        -1.88932198498697   10.06499189459189  -13.16250897448356
C        -1.05054080089375   11.16841970912614  -13.12957965646278
C        -1.23268499231125   12.20630469087179  -14.02865009319243
C        -2.26064324645625   12.14352673407630  -14.95252469320722
C        -4.19028255700932    9.36299933428919  -16.90828907679525
C        -5.16937518306161    8.38440874793877  -17.01892756692738
C        -4.87375838125400    7.17175847742876  -17.61838280400206
C        -3.60568005933484    6.93161461422039  -18.11803450211895
C        -2.62703072278933    7.90940170991456  -18.02196138754788
C        -2.91871597049434    9.11896892718699  -17.42401982195775
C        -3.56775471607680   12.27851204007110  -18.77805723771544
H        -4.25748671379072   14.97616954159034  -15.15360450690243
H        -4.24651421941479   15.99646534429162  -17.63850429502422
H        -6.35090036015355   15.01412011373461  -18.94852390196617
H        -7.68141336679525   13.37600470778641  -17.29083976386704
H        -8.49030002602383   13.63499005556947  -13.61329706926126
H        -8.43861804403320   11.93630022311002  -13.19435933597821
H        -8.85660789180290   12.42575854744903  -14.82500140579683
H        -5.48730024450866   13.98700693212967  -12.54565222525104
H        -4.23195183341822   12.90793835177667  -13.13313788795179
H        -5.51112075074366   12.29285922159624  -12.10472399178727
H        -5.76566404552377   10.08867224201803  -14.33910284611482
H        -6.76637918487462   10.50743362235594  -15.74115164051792
H        -3.56127442434632    9.13326097348442  -14.12318836994224
H        -1.73823526392822    9.25189838383019  -12.46733702241507
H        -0.24993051887181   11.21467848519802  -12.40607678606770
H        -0.57218805219067   13.06096152803075  -14.00987821896101
H        -2.41772156083329   12.94091386745026  -15.67618839106973
H        -6.16425278952218    8.56313040378309  -16.63799075508462
H        -5.63844268476928    6.41252430451273  -17.69761975707151
H        -3.38003591765098    5.98512352932319  -18.58669303827573
H        -1.63902070677747    7.72669994428736  -18.41779499736063
H        -2.16598539515182    9.89318118317287  -17.34799800434839

