50
CSD_code = HINMUM | q = 0 | S = 0 | Stoichiometry = C21H25IPRhSi | MND = 8
Rh       -2.83639573882372    5.13781570523935   13.04359594249062
I        -0.57308589464658    5.89562435576575   14.15765471835476
P        -3.48690361615525    7.23479254284067   12.63832379410472
Si       -4.80052757258500    5.82765114671496   10.28081073007374
C        -3.77093749470223    4.49221585260487   11.13644641251183
C        -4.23040321717496    3.66380271129170   12.21747469077033
C        -3.14048254493102    2.89012879114925   12.68442435484081
C        -2.00385371811066    3.25162480595370   11.92231787679471
C        -2.38893401670747    4.21413603957313   10.95924931484692
C        -6.50640784671493    5.13674338164846    9.79436577582291
C        -3.89835782568016    6.55161453816674    8.76943530882994
C        -5.03355970606655    7.16774197713583   11.64995181554691
C        -2.42959302259377    8.25648281516722   11.56075326749888
C        -2.81050477235783    9.57004218032907   11.30017809084348
C        -2.05338373262692   10.35514343005554   10.45232670165534
C        -0.91079194118096    9.83841771016487    9.86080233943662
C        -0.52509258325922    8.53493666185425   10.12155855892787
C        -1.28392318165358    7.74477709550005   10.96776119435765
C        -3.80998404089266    8.39721851869647   13.99757706727104
C        -2.72238250222948    9.07730136160574   14.54238023490979
C        -2.90100810224950    9.92064694194606   15.62201968249041
C        -4.16297532424840   10.08957278859290   16.16963515169195
C        -5.24497507605062    9.40721102648590   15.63886891063416
C        -5.07060973721778    8.55658340406812   14.56181711306705
C        -3.74507785590851    5.24873587429427   14.93022329720002
H        -5.26466027210219    3.53066767911380   12.50038160019622
H        -3.18592756712254    2.08949465848533   13.40704748602781
H        -1.02530620811310    2.80099003456816   12.00574771015562
H        -1.77223167674965    4.57972584009739   10.15222762942921
H        -6.40106395179443    4.35035400591755    9.05529167271388
H        -7.12352861150951    5.91480349655366    9.35824167147331
H        -7.04534254388508    4.72310041080693   10.64061080257144
H        -3.71818638476043    5.78109704592910    8.02661529491839
H        -2.94334698178631    6.99722150765083    9.03062785097150
H        -4.50284411470630    7.32161403075044    8.30047187452182
H        -5.28420898237974    8.16170158870306   11.27767569878276
H        -5.82940031277172    6.84027475035923   12.32181555124646
H        -3.69309807410011    9.97750761414348   11.77564364655385
H        -2.35068872825437   11.37483233736908   10.25542119042779
H        -0.31846380080468   10.45637205309023    9.20254690546583
H         0.37022276341028    8.13331764360840    9.67085189913730
H        -0.97540115700797    6.73089854552865   11.18316815307207
H        -1.73774755349760    8.93375385813999   14.11959437431286
H        -2.05305578171125   10.44112603706412   16.04086020471180
H        -4.30257282227076   10.74710393279428   17.01480015792987
H        -6.22803340545227    9.53195476242564   16.06965460936640
H        -5.91863535824755    8.01798274561497   14.16377577377492
H        -4.83427155012569    5.23694234028910   14.82961786905746
H        -3.46607439967600    6.12588185929129   15.51441384652990
H        -3.42758145981354    4.35811956485889   15.48164418168258

