77
CSD_code = HINNIB | q = 0 | S = 0 | Stoichiometry = C26H46B2N2Zr | MND = 12
Zr        0.33595804273195    3.73308713670488    2.24374593479456
N        -2.18490077895033    2.54194348635520   -0.28677317274000
N         2.88907224281648    2.33479191802452    4.63060937783760
C        -2.06994350049315    4.42920415340799    1.52633590575635
C        -1.55084401940801    5.66546172174136    1.89364526352353
C        -0.44369969531028    6.25037704344109    1.25415829834478
C         0.24180885859623    5.51986800488801    0.27199290343044
C        -0.20233435354517    4.28343182961265   -0.19683082185118
C        -1.96669800790122    2.09773836282732   -1.65928374268816
C        -2.03801448391045    3.25209351138949   -2.66538688362639
C        -0.67252559298626    1.29343508431427   -1.82977268902673
C        -3.34381542090256    1.94307666320787    0.36143107422352
C        -3.29866728894182    0.40892267755678    0.38086884207248
C        -4.66679342205533    2.44231905717221   -0.23677804839135
C         0.05422108150981    7.59996698138398    1.70571482246532
C         0.54583697535706    7.52766078433504    3.17417831363116
C         0.87518646850712    4.03939557311418    4.72599613124510
C         0.40437835866162    5.30782424777966    4.38636406107643
C         1.07173379575414    6.14868058505751    3.48310081630426
C         2.18913429352932    5.65517254319203    2.78670675355950
C         2.73347992144058    4.39815933053353    3.02404882853291
C         2.68637075086887    1.74898890287333    5.95132466863448
C         2.74173853320412    2.79585116080880    7.06977342590491
C         1.40811856463817    0.90731638770744    6.04298996016581
C         4.05304195273617    1.82442417086334    3.91885543618381
C         5.37216500466473    2.28193555430690    4.55765850759869
C         4.03269305609333    0.29955800868187    3.74423117420431
C         1.52872602213966    2.17123805591279    1.18630880766765
C        -0.83409804180498    2.05716783597674    3.14094450565782
B        -1.51616388820600    3.66833120944927    0.30913814412468
B         2.19808217510110    3.50484265511534    4.15641114184778
H        -2.99728707522392    4.16207392969430    2.03378613279446
H        -2.07274059944908    6.26703711210521    2.63933954290004
H         1.09600174830387    5.99976974227552   -0.21196550194917
H         0.37009661361905    3.88825353078669   -1.03360563949809
H        -2.78669665255990    1.42041422887309   -1.91594726417554
H        -2.98199928156774    3.77910209324890   -2.55441342963536
H        -1.97124678555645    2.86407022762837   -3.67960335593546
H        -1.23580021346021    3.96325132235441   -2.50794316670684
H        -0.63479160693029    0.49072891218570   -1.09766698159353
H         0.20357634999017    1.91934354567035   -1.70100225352426
H        -0.63971648254793    0.85483073769629   -2.82516062174802
H        -3.31505115037692    2.26086506328605    1.40561109343987
H        -2.32884017425998    0.07007270798925    0.73772419041874
H        -3.47802908619985   -0.02372117021990   -0.59982606151817
H        -4.06508852852406    0.03474346172084    1.05576161789272
H        -4.68447633386538    3.52924910308909   -0.22017945327510
H        -5.50708923642961    2.06794059970915    0.34311196592224
H        -4.78790467837455    2.11099223731921   -1.26513960941156
H         0.87416475371500    7.91859843647799    1.05753918009853
H        -0.73683608397424    8.35116628905305    1.62486604144433
H        -0.27999825027043    7.75960717344180    3.85111203180309
H         1.32129634984929    8.28236427234963    3.33446737555615
H         0.31448216085980    3.54981585289687    5.51964185824518
H        -0.45777371197799    5.71815954288408    4.91796044027745
H         2.69728876127539    6.34100291993950    2.10722308302009
H         3.66504558688855    4.20334871901039    2.49198286906078
H         3.52025983274345    1.06492598779189    6.13504419896484
H         3.67005467668520    3.35694208167073    7.00248834333238
H         2.69965264420640    2.30430569624344    8.03946738858904
H         1.91915130584861    3.49724230921476    6.99597253329341
H         1.38512802653474    0.17730772662412    5.23783253441970
H         0.52022367038172    1.52583953557992    5.97289729909051
H         1.38425011924163    0.37567302440416    6.99219174108214
H         4.01174037828796    2.24612100129434    2.91252980626441
H         5.37183523857366    3.36485195964792    4.65387042342801
H         6.21401445291849    1.98423067156280    3.93699228123815
H         5.50677937899014    1.84791110357017    5.54531921873923
H         3.06699567216750   -0.01775110263789    3.35764196407049
H         4.22334161692760   -0.22691107284235    4.67568424160452
H         4.80211998894853    0.00826255150164    3.03288471306039
H         2.04223558635614    1.49888900656268    1.88303867108119
H         2.29994302476560    2.62310178598844    0.53888617959575
H         0.89794982033599    1.53818182893240    0.55069217987626
H        -0.19337279549561    1.36895991297410    3.70547931605281
H        -1.34497425588565    1.45411652379851    2.38154225147025
H        -1.60616237904226    2.43215423889704    3.83486289036840

