90
CSD_code = HINNUN | q = 0 | S = 0 | Stoichiometry = C31H54ClNOsP2 | MND = 7
Os       11.53776701910780    3.54051165110869    4.41043217464770
Cl        9.80076175635540    2.53084752350804    5.82277618036826
P        12.56286110916090    4.37444380423968    6.43265339991623
P        10.61108861673053    2.41980119051216    2.47842294589755
N        10.12040801670797    4.98237176087688    4.38788612848811
C        10.26283584053146    6.11871096315208    3.78425637322678
C        11.50385226066739    6.21890578119682    3.04871897926845
C        12.34674032987867    5.09256696003386    3.21044880358267
C        13.56362677210492    5.15140092745778    2.52502325050792
C        13.91190998827037    6.22442012927367    1.72242533454231
C        13.04030207582391    7.29034542308091    1.54786392379335
C        11.83263587189716    7.28446183447965    2.20909308755567
C         9.25062232270168    7.18053574341835    3.86609664074035
C         7.89930441939821    6.86594311000537    3.72406350842756
C         6.93541025646871    7.85148760576157    3.81605473979488
C         7.30325383832753    9.16291433956133    4.06700911231680
C         8.64141954420622    9.48187748106901    4.23066975217370
C         9.61060987422951    8.50182693629735    4.12954718720801
C        13.82943931319150    3.19505330990688    7.15857348377053
C        13.17752802342351    1.93788811539922    7.73092444982979
C        14.87664372105526    2.80908415099745    6.11504650937904
C        13.62044306652117    5.91694354905940    6.17647163555625
C        14.79885979117732    6.15966341185959    7.11716649297048
C        12.74807776006056    7.16807731888208    6.11097663546635
C        11.47992932275986    4.63434117959423    7.94660863668829
C        10.19966298996684    5.41705539550690    7.65739250493453
C        12.18169935408989    5.20840307139196    9.17525973947784
C         8.84607264392683    1.78461208933150    2.59780141250097
C         7.84347220563896    2.84062393669571    3.05676770837718
C         8.30765038687887    1.06097512016731    1.36592017334934
C        10.80615988090798    3.36023981732842    0.85268343102159
C         9.74343944683321    4.44867222873193    0.71433725445735
C        10.88514096212030    2.55625885845674   -0.44370250088105
C        11.49147527487573    0.81516601276143    2.06383711678250
C        11.23521090833090   -0.26581991703501    3.11144259472584
C        12.99387072567662    1.04438602632228    1.91010968886417
H        12.05876250883324    2.13467027364251    4.84337918166359
H        12.94302052616363    3.16751642597436    3.92567160606467
H         9.25444469173307    4.88173107871552    4.91840172182586
H        14.26891360463186    4.33404449568043    2.60780961531716
H        14.86654304700500    6.22343160438672    1.21415552126310
H        13.30414139274987    8.11230862961187    0.89805548763777
H        11.12959687644462    8.09368901601859    2.06815201382698
H         7.60429218092742    5.84564809995353    3.52137008206335
H         5.89349262486131    7.59437804455768    3.69222306770032
H         6.54987363093634    9.93301912128486    4.14003761494640
H         8.93241666714147   10.50085226841976    4.44101730351159
H        10.64983350336641    8.75501726177080    4.28086424484254
H        14.33141358300564    3.73297634034822    7.96939755485320
H        13.93168892936008    1.16632477594106    7.87832005936553
H        12.70246134061914    2.12871111110029    8.68998735578589
H        12.42721380854269    1.55243655664196    7.04240521850940
H        15.73895596727149    2.35693991828275    6.60402313292438
H        14.45918830008390    2.08658546202130    5.41892380330670
H        15.21320037027285    3.67115422493146    5.54370113222643
H        14.02364081885675    5.74916399036279    5.16812778544473
H        15.29251940070297    7.08361141289427    6.81533672855760
H        14.48117061728986    6.27687897761526    8.14864513588061
H        15.53511241935405    5.36355562900092    7.06417720165743
H        13.30550794863486    7.98652846343508    5.65506505634943
H        11.86327762566819    6.98624552159896    5.50694741393344
H        12.43877656134484    7.48496674557703    7.10460145925777
H        11.16447563620095    3.60715274793664    8.17026919185494
H         9.64786101712843    5.56072105186457    8.58638324001650
H        10.38964582671269    6.39510529115490    7.22316000228558
H         9.56520743260327    4.84122636045986    6.99044380814128
H        11.52052256694872    5.11115710880953   10.03643461071328
H        13.10398063135615    4.68293708728688    9.40792186216293
H        12.39823177914730    6.26601963990164    9.04539006905575
H         8.93127710281084    1.06686080029990    3.42447210996322
H         6.86470123553544    2.37637898831674    3.17878825601419
H         8.14077180693084    3.23035462146665    4.02565505217250
H         7.74372520178538    3.65472128120981    2.34415608560741
H         7.37216840292813    0.56683817958950    1.62846460774821
H         8.09353751399011    1.76295398503791    0.56332842558230
H         8.99000676817486    0.29986075746533    0.99787217361857
H        11.77227416886297    3.86320169203606    0.99499264852290
H        10.05849595911188    5.18350406275921   -0.02635034977193
H         8.79519512694309    4.02836613943557    0.38607588391951
H         9.59325056924189    4.97064223549089    1.65559160257252
H        10.98434673584867    3.25580261514519   -1.27390479826253
H        11.74905948732718    1.89902419816597   -0.46510593645119
H         9.98986769442920    1.96593449364418   -0.61379735650676
H        11.09367515388503    0.47616424797207    1.10203835161033
H        11.94857016287497   -1.07875656290983    2.98369926186334
H        11.36017547546898    0.14223223499985    4.11349943340966
H        10.23438545875015   -0.68198013519655    3.02867082086189
H        13.45470755436407    0.18052455849126    1.43218824309187
H        13.20670193787516    1.92724036152534    1.31192066567565
H        13.45073695688512    1.18142966749875    2.88658704595828

