57
CSD_code = HINNEX | q = 0 | S = 0 | Stoichiometry = C26H22F6PRhSi | MND = 8
Rh        8.58839719219168    0.67988142059669   16.10504654795807
P         7.47151809558662    1.02951072567729   18.04665418436456
Si        5.54721531289317    2.32775338235526   16.08808154572339
F         9.17902765588735   -1.71225567307153   17.69561304841943
F         9.83111289136005   -2.88474447254786   15.34801696932921
F        11.83557627869062   -1.80213619700345   13.83407869050059
F        12.99319348149908    0.52983190525611   14.56431087263284
F        12.17211172656928    1.83153899232712   16.83118938694886
F        10.34433718569727    0.63890138015509   18.43972967098190
C         8.19438785985952    2.51905757836215   14.72229424369808
C         9.04140723681573    1.70440706614519   13.97616762725947
C         8.38309398216094    0.44522823805390   13.76184604597106
C         7.12300917700159    0.49739857455763   14.36124982529204
C         7.02782115300125    1.74715178241813   15.06432704239293
C         3.91142976366094    1.93059238666055   15.19687899225794
C         5.67299949956257    4.18150078810706   16.50763811222447
C         5.68418577994190    1.26336645637884   17.68613856427055
C         7.89540371179820    2.62392905850095   18.81705421846172
C         7.20521852051775    3.07645558671068   19.93762751944061
C         7.50484456999624    4.31015993672502   20.48421020082331
C         8.49551691923150    5.09967302181354   19.92081109342874
C         9.19007849359695    4.65151454654126   18.80991715028793
C         8.88906842924388    3.41805623700210   18.25955906608332
C         7.46738443162797   -0.11839874139593   19.45838711618475
C         6.72898417159000   -1.29456506101332   19.36458273652465
C         6.72364276676824   -2.19895028301048   20.40889124588010
C         7.46631236923783   -1.94379085667280   21.55029276268344
C         8.22515393132215   -0.78863278697816   21.63691259641421
C         8.23413764681459    0.11972196433655   20.59404340079429
C         9.71464580097837   -0.93528060298921   16.71137698597184
C        10.30647293559597   -1.66140035914992   15.62209507263128
C        11.34425898451719   -1.14596186197260   14.89586525173287
C        11.95320417791013    0.07702460057589   15.27969627174245
C        11.51022272126939    0.75311884575559   16.38223340536543
C        10.34519926783894    0.32796002906774   17.10702198099340
H         8.34242092074930    3.55982346738685   14.95991937645598
H         9.97834956615413    1.99329671436323   13.52579536608321
H         8.75036387966019   -0.33544210404974   13.11326579786370
H         6.33934206103095   -0.23830529709683   14.27496248777195
H         3.81547764913967    0.87526765386101   14.96426976001166
H         3.84315472732162    2.47981837825608   14.26465073879572
H         3.06080226115155    2.21358989553141   15.80716618156022
H         6.58977605843349    4.41798699250817   17.03840222998975
H         4.84130179910266    4.49027766570900   17.13266716499382
H         5.64272321329003    4.78230386883727   15.60455564903071
H         5.18173723553771    1.68382291864310   18.55697718404854
H         5.25972537854479    0.27715160348276   17.49660576617190
H         6.44275229059877    2.45549937147251   20.38786755357426
H         6.96771430994868    4.65750190297655   21.35465246954872
H         8.72778034898166    6.06205959814993   20.35196525342731
H         9.96784279763274    5.26091223748740   18.37438422231070
H         9.43009312317232    3.05909948479532   17.39010095878579
H         6.17389801168600   -1.50997874696317   18.46235692620766
H         6.14683566500649   -3.10865640991615   20.33090294020985
H         7.46405028458628   -2.65167665325952   22.36588254885193
H         8.82014388288672   -0.59696140770995   22.51769548583112
H         8.84344041314635    1.00929125725536   20.65491449280572

