263
CSD_code = HINRAZ | q = 0 | S = 0 | Stoichiometry = C136H114Cl2O8P2Pt | MND = 4
Pt       12.61765797785780   -0.00229178856579    0.00069038298951
Cl       10.62596204723645    0.25541799671019   -1.16943566138493
P        11.58552071790439    0.84114436766819    1.85825181852366
O        10.53413078497462   -3.52499900727701    5.73643442454571
O         7.15384086659978   -3.12812756117754    4.78902058827326
O         6.27244196116223   -5.15206357471044    2.08933606242493
O         9.53131113419404   -4.67350985518710    2.91543795748794
C        11.04851477213869   -0.51913526945100    2.92096914431646
C        11.66504720313453   -1.74982650135131    2.74676868195415
H        12.33832878482453   -1.89650155012383    1.90616796430161
C        11.47142902742301   -2.77682847402783    3.65463118972835
C        10.62291435657334   -2.56468050806757    4.74646911788029
C         9.89794578418564   -1.37361606844803    4.86118418055818
C        10.13586559936547   -0.35307137863870    3.95464690771193
H         9.60124603907042    0.58162380475776    4.05632318440137
C         8.83969282129108   -1.17139142125626    5.92414765411138
H         8.70996741408739   -2.09130269361546    6.49150491338175
H         9.13067710830832   -0.36461804693946    6.60300555657015
C         6.06524822795925    0.84913428164845    4.31747403075756
H         5.75107499977306    1.87963989140494    4.24242191439235
C         7.16493727577422    0.51328731768346    5.08425958777993
H         7.71929117822628    1.28846272195303    5.59480884845031
C         7.55925787849121   -0.81042477227929    5.21897222008755
C         6.81733900528108   -1.80863195522056    4.58101458575956
C         5.77970399916932   -1.46616567233708    3.70581814569837
C         5.40401234058073   -0.13394813222770    3.60443504354392
H         4.58619290829357    0.13568443174345    2.95003385084052
C         5.20418633760338   -2.49246314826056    2.76150379202028
H         4.29106690562675   -2.09827703162653    2.30563892313969
H         4.96598068976925   -3.42043340229352    3.27551925619236
C         7.80240888301865   -1.82832930924500    0.09614503365871
H         8.20040002157418   -0.98275846511561   -0.44380946908530
C         6.76340415857406   -1.67312908297937    0.99221607628194
H         6.34582275374888   -0.69295102942622    1.16892528677095
C         6.25115916700252   -2.75357528699538    1.69824600359145
C         6.77183780955272   -4.02724962877152    1.45568670203017
C         7.84555995658316   -4.18813078640578    0.57607217440197
C         8.35663737960344   -3.07980595264216   -0.08208019392963
H         9.19781099634990   -3.19747399227722   -0.74618264273516
C         8.49389205162097   -5.53271559735584    0.35053441858703
H         8.00744863865179   -6.28127962745442    0.97797962693405
H         8.36337531227434   -5.83289849223554   -0.69384350766710
C        12.25932255291415   -5.49255885378750   -0.09467617626472
H        12.97820738559257   -5.73467991619392   -0.86373443636724
C        10.91334307733135   -5.71782556085693   -0.31894808512445
H        10.59081797848800   -6.12307569199878   -1.26840606641868
C         9.96640042316941   -5.42673766577785    0.65319013191460
C        10.40713131601498   -4.94945792861236    1.89210956796835
C        11.76187991789984   -4.67688003773315    2.10827389602631
C        12.67826022720214   -4.93817357690706    1.10148145692576
H        13.72399184355479   -4.71670227171324    1.25965066607553
C        12.17795124293641   -4.08753892596169    3.42978784445505
H        13.25845726675969   -3.92595525385864    3.43501443559752
H        11.92093069201346   -4.77760747885601    4.23527628298681
C        11.37389190870645   -3.24958620767983    6.85766425982165
H        11.22223231076057   -4.09422185430876    7.53405300221119
H        11.04490085582388   -2.32501464730431    7.35427823182008
C        12.82076832383940   -3.13474974649547    6.45726416321709
C        13.64981381542075   -4.24851284564142    6.46409542860240
H        13.27066349279454   -5.19485268731909    6.82234796823764
C        14.95032921371816   -4.15379166983172    6.00112575272024
H        15.58860044791890   -5.02532985440251    6.01309585325021
C        15.42791365898809   -2.95043069173296    5.50903741867747
H        16.43665743678576   -2.88177259644454    5.12990305950662
C        14.60837942721997   -1.83445373475193    5.49938151926642
H        14.96964849832042   -0.89615121992094    5.10602245764815
C        13.31462000064755   -1.92632861357928    5.97989211462820
H        12.67963644659992   -1.05205360119397    5.97616809493598
C         6.19631253803019   -3.87539473197760    5.52417693628470
H         6.24779517132503   -4.89907910281204    5.13457499573919
H         5.18065365222986   -3.49530695520842    5.36169168036298
C         6.47459461637321   -3.88828910311022    7.00737226848620
C         7.75420427021619   -4.16590106525117    7.47186930449331
H         8.53933650455055   -4.34840276765580    6.75344132823536
C         8.01761984945478   -4.18449742140887    8.82944193945359
H         9.01702081573159   -4.39531330136268    9.18273803627537
C         7.00159959197009   -3.93675546344618    9.73747895912104
H         7.20558305955677   -3.95437167149582   10.79809936360165
C         5.72347837223486   -3.66487527049456    9.28109473527520
H         4.92805160913433   -3.46925394992681    9.98540266208622
C         5.46204746594339   -3.63653815861256    7.92182372701267
H         4.46333733036395   -3.42033808313672    7.56841649868532
C         4.93616634480028   -5.51586577308534    1.76745877194988
H         4.97282649829486   -6.41557654117281    1.13070209952589
H         4.44048427684113   -4.72226655229603    1.19776676630120
C         4.16831350156783   -5.82591896154338    3.02684038758165
C         4.73983593190391   -6.65079366885090    3.98844988505390
H         5.71689997108145   -7.07242735630371    3.80425558790483
C         4.07253132638016   -6.91606556873176    5.17061560874305
H         4.52913083032789   -7.55119860218207    5.91551787372561
C         2.82206870225757   -6.36721052873161    5.39933072595079
H         2.30091938472922   -6.57344413795985    6.32228595211072
C         2.24175707371307   -5.55421942953150    4.44084631638911
H         1.26538679069306   -5.12571850334678    4.61345491999446
C         2.91360180494036   -5.28073337180960    3.26170518250887
H         2.46038443414398   -4.63837611445428    2.51953473344224
C         9.02184197210701   -5.78573395133632    3.63793942536877
H         8.34354951258791   -6.37848834493915    3.00948508035872
H         8.44474508930874   -5.31981836825219    4.43646398675012
C        10.09740187962490   -6.68113628548512    4.19997575452482
C        10.82434541216485   -7.52083193418240    3.36238822896081
H        10.58885778003477   -7.56804599272750    2.30905474722362
C        11.85434291187875   -8.29680185312904    3.86444951169016
H        12.41749161432602   -8.93433767498594    3.19858123046561
C        12.15860533567570   -8.26217675310690    5.21405940462669
H        12.96156916733924   -8.86963288437583    5.60573292378562
C        11.42014103438528   -7.45292855207662    6.06059826989598
H        11.63936806857837   -7.43704273221247    7.11929186891290
C        10.40064068594154   -6.66568995622831    5.55566486178662
H         9.83453546981945   -6.02899377621334    6.21674546890700
C        12.67861063680476    1.81836135845530    2.94107660006910
C        12.64632837431141    1.72916041705061    4.32625179937944
H        11.95104960114056    1.05549201929831    4.80517934451467
C        13.51062635819215    2.49185172110286    5.09114818409744
H        13.48811389501008    2.41139740708699    6.16865517586927
C        14.40664077124911    3.35101188847896    4.47848240824790
H        15.08415981479163    3.94205178239650    5.07740479984189
C        14.44129334516531    3.44403808947724    3.09697788593924
H        15.14625525066796    4.10978545626227    2.62257288516380
C        13.58564929387908    2.67777898223093    2.32801800884698
H        13.62318411039776    2.72538666487389    1.24446460275577
C        10.12514353903503    1.91188900725609    1.70838320036151
C        10.27185749819300    3.29272493095683    1.63359802225802
H        11.25769363735618    3.72956655161995    1.70723689352302
C         9.16149388129057    4.09969645562532    1.46635926528299
H         9.27903416220274    5.17252754499521    1.40935733855452
C         7.90100312834053    3.53395288860375    1.36910335506853
H         7.03417961251099    4.16576161160468    1.23966307150031
C         7.75434302385694    2.15785328921108    1.42985934061230
H         6.77230919494051    1.71663653602293    1.34763213978300
C         8.86003522806302    1.34462992348214    1.59213398123403
H         8.74818047373793    0.27074287628661    1.63031752032476
Cl       14.61134811441400   -0.25532514253856    1.16896156175861
P        13.65167011543427   -0.84114774392938   -1.85805092283312
O        14.70310217375797    3.52474090772655   -5.73653711478975
O        18.08332215120063    3.12770468293386   -4.78908154690467
O        18.96481017650892    5.15164890574158   -2.08973585443630
O        15.70596134558496    4.67352405608715   -2.91570466414118
C        14.18863578760920    0.51894434376184   -2.92105719395235
C        13.57216604142579    1.74966598116974   -2.74687972188025
H        12.89890004880530    1.89634937766010   -1.90625398389909
C        13.76583126284516    2.77665320431816   -3.65471917293948
C        14.61434459089948    2.56445677915160   -4.74654437077498
C        15.33926196686746    1.37336137116159   -4.86125419901003
C        15.10127334211494    0.35281873244088   -3.95473120446459
H        15.63594114237918   -0.58186392419311   -4.05631185217991
C        16.39751879719743    1.17104751270570   -5.92419036262790
H        16.52731816118270    2.09092585282955   -6.49158077308268
H        16.10648684816126    0.36426544807487   -6.60301832324060
C        19.17184356480514   -0.84955634138774   -4.31740327669598
H        19.48598552486133   -1.88006921527218   -4.24232676998573
C        18.07217516117461   -0.51368833128097   -5.08420960935018
H        17.51779480620132   -1.28885428878155   -5.59474521801220
C        17.67791462168598    0.81003571381750   -5.21896226299354
C        18.41985555850660    1.80824411488565   -4.58101915666316
C        19.45747915209122    1.46575973448232   -3.70580903032149
C        19.83311321846933    0.13352734545693   -3.60439792126509
H        20.65092619969772   -0.13611717277913   -2.94999422558911
C        20.03306557426341    2.49201303311288   -2.76147872335119
H        20.94610821876181    2.09771681779392   -2.30555157029077
H        20.27142406179746    3.41996267850262   -3.27546037109792
C        17.43481669519803    1.82820727553275   -0.09605969998044
H        17.03682169018297    0.98270706738132    0.44400278400006
C        18.47381312700445    1.67288154316047   -0.99212429426807
H        18.89138759536110    0.69267743820657   -1.16871426313881
C        18.98607723268188    2.75324219880847   -1.69827159186217
C        18.46541675946764    4.02695382966810   -1.45586576692495
C        17.39174186430309    4.18796945780872   -0.57622268437234
C        16.88064407032695    3.07972576847657    0.08206069845565
H        16.03950916008408    3.19749841201164    0.74619330403241
C        16.74347723335691    5.53260873605526   -0.35079871601763
H        17.22992885766825    6.28109185150777   -0.97833275602884
H        16.87402330770707    5.83288977628318    0.69354722447247
C        12.97808227023208    5.49232521153843    0.09460831853809
H        12.25923241640195    5.73438409958516    0.86371934401995
C        14.32406423297967    5.71764973354616    0.31880406337513
H        14.64663240338854    6.12287755041397    1.26825653454320
C        15.27096096436222    5.42662997191260   -0.65339919196391
C        14.83018414659109    4.94936550571273   -1.89230804763394
C        13.47543977625066    4.67670974538612   -2.10838697559206
C        12.55910747555377    4.93792519658725   -1.10153018944479
H        11.51337939500825    4.71639417880450   -1.25963947876403
C        13.05932041003914    4.08737062087088   -3.42988140887430
H        11.97880993528298    3.92581249295789   -3.43505827371990
H        13.31632972738431    4.77742296110910   -4.23538438434546
C        13.86328558145879    3.24932342538411   -6.85772370747590
H        14.01494495790805    4.09394340768320   -7.53412898675211
H        14.19224679600510    2.32473516141549   -7.35432363388235
C        12.41641642512421    3.13453218832749   -6.45727922810808
C        11.58739941880094    4.24831605432956   -6.46411663315885
H        11.96656713364013    5.19463623339564   -6.82240128810828
C        10.28689089268141    4.15363904679654   -6.00112111436957
H         9.64864185001852    5.02519256718239   -6.01309960023802
C         9.80928493783103    2.95030297900689   -5.50899779054441
H         8.80054867462334    2.88168080016492   -5.12983716024601
C        10.62879074163089    1.83430766842242   -5.49933121353172
H        10.26750509453899    0.89602578461972   -5.10594011624554
C        11.92254217698050    1.92613651563858   -5.97986926716349
H        12.55750288646875    1.05184441255213   -5.97613439151245
C        19.04105216227707    3.87520848806622   -5.52372675130599
H        18.98993532680455    4.89865572158612   -5.13343368707819
H        20.05659682481101    3.49468026090645   -5.36158061641275
C        18.76272936718376    3.88924980533550   -7.00690459826197
C        17.48293545054726    4.16635625405816   -7.47118035767876
H        16.69765345201661    4.34763707796029   -6.75260661613597
C        17.21955657726857    4.18601930970071   -8.82874822693098
H        16.22001008896604    4.39642000854393   -9.18188222554968
C        18.23578559869822    3.93987615183890   -9.73698289406770
H        18.03182085085402    3.95830603371109  -10.79759241310941
C        19.51410009409674    3.66854379578689   -9.28080755187193
H        20.30969542305949    3.47416363763765   -9.98526894065792
C        19.77550516793257    3.63913678710369   -7.92155740191032
H        20.77436520161312    3.42335747299055   -7.56831273508285
C        20.30098063836435    5.51568280328552   -1.76765494502039
H        20.26410700394184    6.41536089619129   -1.13086500359323
H        20.79674561083611    4.72213637346096   -1.19795722184915
C        21.06887828548324    5.82588997826236   -3.02696622069106
C        20.49741061944868    6.65095122334773   -3.98845484796405
H        19.52039485263057    7.07268148502624   -3.80417662923551
C        21.16470659558456    6.91630134293393   -5.17060834565921
H        20.70814939918025    7.55158750318105   -5.91540788544084
C        22.41510793920575    6.36734099391888   -5.39943330383765
H        22.93625274252326    6.57365042394493   -6.32236862257527
C        22.99535858979329    5.55414742837534   -4.44108088486023
H        23.97168663943605    5.12561641935712   -4.61374483193999
C        22.32352264828246    5.28058698486759   -3.26194684139342
H        22.77670712049580    4.63810662612261   -2.51986398221412
C        16.21532278317104    5.78583479825531   -3.63814602018533
H        16.89345074218236    6.37870121648327   -3.00961851087926
H        16.79258147900495    5.32003985163669   -4.43662340342612
C        15.13965522494687    6.68105631118583   -4.20027175291698
C        14.41246408464239    7.52057988166875   -3.36272541074316
H        14.64785772429260    7.56782196739639   -2.30937120832575
C        13.38234668862141    8.29634605343572   -3.86485615456124
H        12.81900755297404    8.93374761064141   -3.19902081645142
C        13.07821094767663    8.26169186187282   -5.21449321246487
H        12.27514612268719    8.86898194498700   -5.60621991010714
C        13.81692993259695    7.45263298187626   -6.06098995193829
H        13.59780782029746    7.43674162345087   -7.11970560096938
C        14.83655174799986    6.66559069039563   -5.55599159719962
H        15.40286976776425    6.02905830696348   -6.21704738831137
C        12.55861634571804   -1.81841060586224   -2.94091934441901
C        12.59090486350302   -1.72928358128556   -4.32612601663277
H        13.28611120530475   -1.05556771462200   -4.80507699219734
C        11.72657537438211   -2.49196975561504   -5.09101790877209
H        11.74905768662302   -2.41151995605152   -6.16852942023806
C        10.83053886215389   -3.35109977101907   -4.47834028376185
H        10.15306516117398   -3.94220819639597   -5.07726226624783
C        10.79590524025716   -3.44410625157943   -3.09683177257547
H        10.09101831380714   -4.10993602108417   -2.62244084967580
C        11.65155173411900   -2.67782415884912   -2.32786699315295
H        11.61404699286119   -2.72542219748436   -1.24432009753325
C        15.11200561120417   -1.91200735827956   -1.70842748815251
C        14.96528420561410   -3.29285853675017   -1.63366541040886
H        13.97944454893005   -3.72970237909643   -1.70727462313512
C        16.07563172159215   -4.09984661932229   -1.46633492048716
H        15.95809049661593   -5.17268128707340   -1.40940538032087
C        17.33612115580742   -3.53411947960716   -1.36899941850635
H        18.20294997615066   -4.16594639825429   -1.23967444044926
C        17.48279064821714   -2.15801740623704   -1.42973421418137
H        18.46483471270033   -1.71681764958688   -1.34753394546078
C        16.37711857946253   -1.34477570587165   -1.59209651612442
H        16.48898211013367   -0.27088946348548   -1.63017520897345

