57
CSD_code = HINRIG | q = 0 | S = 0 | Stoichiometry = C20H32NiP2S2 | MND = 4
Ni       -0.00022384921220    9.70400039030730   -0.00009798810331
S         1.30311390393056    7.87755417417149   -0.17359141436211
P         1.02730988091645   10.72194205733735   -1.62949215927878
C         0.46354508934302    7.27591914921211   -1.58028019040890
C         0.99353779876649    6.19924595680433   -2.30653884416596
C         0.31504273521897    5.75845374873424   -3.42935024234293
C        -0.86622183342520    6.35476493068583   -3.84354004906212
C        -1.39003377029076    7.41094051700337   -3.11879329050753
C        -0.73184067290702    7.86739398962110   -1.99289315607522
C         1.84263697170739   12.29645672755519   -1.16951737913232
C        -0.03880226965430   11.24756044872594   -3.02172993666862
C         2.38739964283933    9.89806262364109   -2.54148165037975
C         2.27053553126289    5.55944966037767   -1.86201976625184
H        -1.17330568727508    8.69368517591076   -1.40614142325307
H         2.15572897381245    5.15237799633691   -0.85746654109916
H         0.72115549492842    4.93110215293436   -3.99484753795654
H         1.11658238400424   12.96314363329061   -0.70817560200549
H        -1.37477183777024    5.99350462370411   -4.72493621958411
H         2.79775190635829   10.58036256859715   -3.28472362480141
H        -0.43240364826981   10.36667185145152   -3.52665675974491
H         0.54507546537368   11.84142325903671   -3.72371125148308
H         2.64196392286428   12.09882207046433   -0.45656079005360
H         3.16607504038230    9.60301879589011   -1.84059854692481
H        -0.86804024306510   11.83754501945835   -2.63653137765259
H         2.25717817621095   12.76526693148454   -2.06121529098856
H         2.00829462190831    9.00424943152607   -3.03402674866730
H         3.06624826661687    6.30305598873113   -1.81513119087135
H        -2.31350154694319    7.88046543295091   -3.42707962479419
H         2.56543225227408    4.76118065805050   -2.53834287445084
S        -1.30324501437078   11.53053589046457    0.17356458545136
P        -1.02739177759615    8.68529708555406    1.62906208267982
C        -0.46315476737791   12.13120875991796    1.58038537099312
C        -0.99292949822796   13.20760575093323    2.30716142213041
C        -0.31442180604357   13.64769774044661    3.43023114364548
C         0.86670438826630   13.05094943040853    3.84418957824627
C         1.39036298805495   11.99506044186870    3.11890869539109
C         0.73212786862284   11.53928728674463    1.99272958493836
C        -1.84382680288729    7.11153425260175    1.16862063968868
C         0.03815899528049    8.15881688785593    3.02139249560380
C        -2.38721653925139    9.50958532079751    2.54116328199778
C        -2.26976371577474   13.84783909339511    1.86282497397303
H         1.17355691163689   10.71322897711417    1.40561026888961
H        -2.15473953131014   14.25551330600604    0.85853994288558
H        -0.72040064906220   14.47486914379817    3.99608441278378
H        -1.11818996743326    6.44473431728267    0.70681726132283
H         1.37527263351527   13.41167451696391    4.72579581035932
H        -2.79801962771747    8.82727388214082    3.28414536165492
H         0.43230046030063    9.03939912323717    3.52644673718055
H        -0.54614673275334    7.56522399561517    3.72324413060769
H        -2.64317432388094    7.30991573574234    0.45589266242194
H        -3.16572493816898    9.80533014792073    1.84038979684803
H         0.86700598221833    7.56839277937596    2.63605931621028
H        -2.25844140345046    6.64250137854841    2.06017560781603
H        -2.00772666290112   10.40303009198958    3.03410236896521
H        -3.06558676161369   13.10438776265003    1.81536245350697
H         2.31376169607284   11.52524947356365    3.42697655061265
H        -2.56461410405502   14.64573746306708    2.53959493425744

