64
CSD_code = HINSAZ | q = 0 | S = 0 | Stoichiometry = C18H42ClP2Rh | MND = 5
Rh       -0.23921725721783    8.77248419988173    0.00087966432355
Cl        1.37313194781726   10.38528734555709   -0.00069215619957
P         1.41234728306993    7.21333570762821    0.16900836757900
H         0.98610479395289    5.87514436926889    0.16494371008529
C        -1.70629320003949    7.39567965449838    0.69318288423846
H        -1.27876766314700    6.61282780209810    1.31031215183798
H        -2.55989853151738    7.89548371710512    1.14070455136553
C         2.35875477861063    7.07121340603084    1.79072546429731
C         3.14504777832597    8.33910464590391    2.11175870236798
H         3.48074398859831    8.31297529263190    3.14823525601736
H         2.52149626742801    9.21998423099609    1.97515311331969
H         4.01951467378280    8.44286726942405    1.47633502293874
C         1.23721174818909    6.91991562248611    2.82567773341844
H         0.68184885196935    5.99564754620371    2.66567929923547
H         0.54552322405748    7.76335219375057    2.75438107489689
H         1.64935560389751    6.89938052821611    3.83369272609187
C         3.27039569949464    5.84867069428144    1.84584399369656
H         3.62223444234929    5.70382788187799    2.86727212313475
H         4.14368078636678    5.97738897460052    1.21117082555369
H         2.73952081750133    4.94810901887242    1.53973441896383
C         2.52689480292100    7.07562067522159   -1.34760711230527
C         2.98641125022792    5.64131840716801   -1.60571699056986
H         3.52942840735301    5.60031184732716   -2.54977926604925
H         2.13376612310082    4.96732747909001   -1.67732753385154
H         3.64729172422981    5.27938436145185   -0.82373935420716
C         1.62659441704296    7.52303003110989   -2.50627675611903
H         1.23994369354220    8.52894099189351   -2.31525527361732
H         0.78481012755455    6.84068913654313   -2.62667292437770
H         2.18672990563865    7.54249057689347   -3.44024414457444
C         3.72311681134131    8.01849301911781   -1.25355242569277
H         4.20544740040977    8.10477319887852   -2.22698753511578
H         4.46211196234999    7.64843534331367   -0.54642464086930
H         3.39901305306115    9.01027398193989   -0.94336620322944
P        -1.79785742220440   10.42364295934424   -0.16932107738355
H        -3.13592921923756    9.99711329906907   -0.16476847515080
C        -1.61538489398146    7.30489005963644   -0.69343413754131
H        -2.39866285694511    7.73186898176052   -1.31044883746141
H        -1.11601844836942    6.45094422857642   -1.14084525384906
C        -1.94010429223629   11.37010859088445   -1.79091837025767
C        -0.67211494286433   12.15637153366408   -2.11162830971637
H        -0.69797778309569   12.49206513996984   -3.14810358555325
H         0.20872919824736   11.53280056077325   -1.97469957017207
H        -0.56856915847585   13.03084080158986   -1.47617410779386
C        -2.09122635219259   10.24841418054689   -2.82571873200260
H        -3.01552209540228    9.69308595694283   -2.66576737426935
H        -1.24781375498254    9.55669846967584   -2.75420806488307
H        -2.11163795535988   10.66046431249618   -3.83376414069066
C        -3.16274192016457   12.28160193820869   -1.84597247282577
H        -3.30768324238234   12.63332910670634   -2.86741866369195
H        -3.03407441705395   13.15494243428470   -1.21136260819757
H        -4.06322062877713   11.75064003087757   -1.53975845457426
C        -1.93544934723666   11.53799059364676    1.34753628058050
C        -3.36970451722480   11.99760544824143    1.60570872050122
H        -3.41066307157598   12.54055136205827    2.54981877150300
H        -4.04382031431894   11.14505901195477    1.67725431816804
H        -3.73156988231844   12.65860988225131    0.82380767968149
C        -1.48812231545216   10.63774043980579    2.50628231918834
H        -0.48222165680614   10.25112845165670    2.31528935324301
H        -2.17041721564941    9.79592523061809    2.62664608587270
H        -1.46870500722864   11.19782853207966    3.44028520149118
C        -0.99259870055726   12.73423584211890    1.25361956577525
H        -0.90623235531050   13.21647443709279    2.22709223627545
H        -1.36272693642945   13.47330012581234    0.54660326941532
H        -0.00085420667721   12.41015890639840    0.94331966773576

