49
CSD_code = HINTUU | q = 0 | S = 0 | Stoichiometry = C18H20CrN2O8 | MND = 6
Cr        5.02056227577790    3.31889412693828    2.54596566329877
O         2.67430046231572    5.53479589054811    6.03231976498717
O         0.48972837893996    5.67804535610333    2.07006851198872
O         0.59801465428876    4.58065505568589    5.54830836129574
O        -1.40474516878190    6.47783674353152    3.17419937457048
O         4.42971850722860    0.38908916196273    2.40503567336638
O         7.71421115593113    2.32576297319125    3.35456498383023
O         6.43887992463774    5.94062926566163    2.28985015057142
O         6.12656699114224    2.87426460701483   -0.18815059196510
N         4.09071238603827    3.66756497111721    4.59874660571791
H         4.33269556217768    2.93327691882174    5.26055660811364
H         4.43245471942845    4.54609864979930    4.99014571953800
N         2.92707111747661    4.06151753587177    2.04539197284523
H         2.90014597865115    4.74136692406382    1.28807129787121
H         2.35341061831155    3.27452039646905    1.74251316490053
C         1.97542292730262    4.36615084253326    5.72270124596696
H         2.02867099405095    3.65028865135727    6.56180176885221
C         2.64663905004227    3.77050444592457    4.45593104610576
H         2.22862025171797    2.77079215887956    4.28001247191871
C         2.34268357897525    4.65877851844531    3.23841356798072
H         2.80959763241088    5.63945359932244    3.39352552631719
C         0.82386674661930    4.84091684236683    3.15280664204527
H         0.33887979865696    3.85324001233077    3.02057394660556
C         0.31903222541600    5.45072072521391    4.46820469403351
H         0.81740847067071    6.41979775507480    4.61543041779911
C        -1.18402958663077    5.68614380498224    4.31859149964702
H        -1.69756140501287    4.71684144232215    4.23379610761712
H        -1.59292583129521    6.23926286283372    5.16415087479843
C        -0.90295060528494    5.89521563309764    1.99791378925538
H        -1.40083697061979    4.91189167351937    1.84590690057541
C         2.34558011581663    6.09380474024947    7.29189175542447
H         1.27929628388030    6.32300167803759    7.35368252998328
H         2.92934214732610    7.00698914329735    7.37600450385661
H         2.61194095389653    5.40343083428058    8.09870098419709
C        -1.19661993310026    6.82843548507200    0.85212894125211
C        -0.41098616559277    7.95689642174985    0.66589334893063
H         0.41705960695686    8.13739400774014    1.33238740405484
C        -0.68953515905763    8.83032142053972   -0.36999172169873
H        -0.07405439799920    9.70551023369072   -0.51466023073926
C        -1.75692480678354    8.58543733030900   -1.21745112692121
H        -1.97543588730233    9.26921321363061   -2.02407515196130
C        -2.54496541290573    7.46293292708112   -1.02891257736176
H        -3.37900054525892    7.26989031532047   -1.68682845311645
C        -2.26563314569538    6.58384223146178    0.00294848595701
H        -2.88043511367162    5.70797061115993    0.15002327218071
C         4.51482292011795    1.53763007407728    2.52055938879010
C         6.65390574963282    2.72347537750665    3.10224723780474
C         5.76982506261418    5.01334491181616    2.45731528110712
C         5.63697288654214    3.06726149799358    0.84538836781093

