49
CSD_code = HINTOO | q = 0 | S = 0 | Stoichiometry = C18H20MoN2O8 | MND = 6
Mo       10.10311904295495    3.48233071103852    2.56774779283781
O         7.77454250220219    5.68617066746481    6.05661911028762
O         5.61585068221858    5.85614939424185    2.07919162133498
O         5.70257828234389    4.73859316198376    5.54935604212930
O         3.72659781088102    6.67124449613953    3.18093629879076
O         9.20915041317273    0.52176475124450    2.62052217846524
O        12.87128758653332    2.53007318712811    3.51530167013943
O        11.24597898447828    6.35196032755131    2.39240398938252
O        11.11254225349831    3.03246516424412   -0.30360597988972
N         9.20347066915248    3.85343375497036    4.63187350091316
H         9.44668004929190    3.12428208237244    5.29990068640935
H         9.53046780027881    4.73953093753699    5.02017239304272
N         8.00652989056752    4.20376048504554    2.04181496444008
H         7.97911527099539    4.87899279719848    1.27956214137705
H         7.41968017951193    3.41978972960902    1.75497358676345
C         7.07823911420175    4.52002362574158    5.72857657504767
H         7.12666893208308    3.79517135526781    6.56064073832335
C         7.76447211996848    3.93519696620605    4.46262894000113
H         7.36265301411159    2.92704796760442    4.28305355077486
C         7.45750004055148    4.81447882621499    3.24011810004960
H         7.93902669733154    5.79288552104645    3.37979304849499
C         5.93962179414037    5.01299706769402    3.16085050060564
H         5.44579893402608    4.02949169388257    3.02499143386515
C         5.43584627708466    5.62104317331682    4.47635896673906
H         5.94410556599905    6.58356491460039    4.63305440952317
C         3.93601691085210    5.87244369961346    4.32251171613257
H         3.41351693787389    4.90839141778517    4.23163745815209
H         3.52981330460474    6.42558742517169    5.16938537020448
C         4.22613839256589    6.08806617027849    2.00392174340368
H         3.71839516462439    5.11044724818216    1.84656822739323
C         7.43503905758849    6.23010993250738    7.31951268944675
H         6.36768888589686    6.45591932959796    7.37583837338290
H         8.01593401212393    7.14367956382073    7.41871325164558
H         7.69689947297151    5.53082246954296    8.12026332407821
C         3.94644970785165    7.02852300543157    0.86047119109142
C         2.87275251866431    6.80319582746095    0.01191523107491
H         2.24346127242373    5.93754962334436    0.15841906282341
C         2.60722955726722    7.68841350086376   -1.01833320365402
H         1.76952171471632    7.51027808687061   -1.67584420367389
C         3.41391551949968    8.79769909952006   -1.20610909738142
H         3.20660142314961    9.48586975790209   -2.01200999642912
C         4.48590120263406    9.02346155431604   -0.35922125374663
H         5.11616618245952    9.88820501927147   -0.50333199935368
C         4.75052200318505    8.14405333647900    0.67525009576994
H         5.58209924512234    8.30981497165883    1.34125379096563
C         9.48646217388862    1.62954471942558    2.62359467209493
C        11.83988238868528    2.88882577547799    3.17679435669783
C        10.77222155597452    5.31883434145225    2.48574851288495
C        10.72344748780124    3.20522136467833    0.75711442715128

