61
CSD_code = HINVEF | q = 0 | S = 0 | Stoichiometry = C28H24Cl2MoN2O4 | MND = 6
Mo        4.22516430057037   -6.59892592568537    4.87151345585397
Cl       -0.38176145961108   -3.64339183219958    0.68540235529999
Cl        8.72961689313365   -7.86261528001746    9.91179455975339
O         4.86545391917215   -6.85923969152982    6.57529476419660
O         3.54427083443755   -5.43786649620664    3.61844062028596
O         2.96496365804602   -7.66394394674516    4.92399994467718
O         5.55585063781910   -7.10100325639096    4.03361582625591
N         2.87952189281096   -5.12182064252651    6.40859139179161
N         5.40574191255909   -4.38918381883701    5.17802275491464
C         4.27108494862848   -6.59234362256681    7.72172926697612
C         4.66761498531248   -7.16363365483780    8.93538056808163
C         4.03780623258036   -6.79436680264076   10.10768021862601
C         3.01845735564180   -5.85541362492753   10.09671699628077
C         2.61064000322084   -5.28719537066898    8.90060471847207
C         3.21850838215993   -5.66008068299671    7.71259507440769
C         1.42087412066367   -5.24400292962502    6.18740920131850
C         0.97049795956248   -4.84440889835585    4.80833541196658
C         0.89543242304357   -5.78964951629408    3.78938803694300
C         0.47289774680366   -5.42710834586532    2.52308490705021
C         0.12386704770331   -4.10928953302141    2.27057452905418
C         0.17159465247484   -3.15763125101101    3.27530713090508
C         0.58735088406025   -3.53404665121186    4.54002330730076
C         4.08004827731528   -4.32261328619422    3.16233880358760
C         3.68685170288952   -3.72686343408338    1.95938539622968
C         4.24960059748430   -2.52741516540272    1.56960262642464
C         5.19663954257170   -1.90019777450527    2.36367343008832
C         5.60051854664006   -2.48289202341226    3.55411872660705
C         5.06167169874942   -3.69633418699546    3.95057260260446
C         6.87649477218236   -4.53009847008425    5.27042551990397
C         7.34290425827961   -5.36569458673070    6.43165604912105
C         7.52228882634949   -6.73820678347264    6.28544838131363
C         7.95709160556913   -7.50820804259515    7.34917104203906
C         8.21354571300726   -6.90360323799438    8.57015978806091
C         8.06262503556197   -5.53657548869206    8.73081239107820
C         7.63562572628485   -4.77559914114157    7.65715789366168
C         4.85570796729473   -3.66321170243836    6.32735877558272
C         3.32983068357593   -3.72921197196155    6.31638458662482
H         5.46366451401204   -7.89184221816895    8.92812386103381
H         4.34710291799995   -7.23973946902323   11.04085655183157
H         2.53526340079999   -5.56677533733253   11.01704575829046
H         1.81166986754072   -4.55950365586824    8.90805058649218
H         1.17584874180476   -6.29603495744705    6.35310453478078
H         0.88421018151380   -4.62750870375359    6.92386567229815
H         1.18744286060875   -6.81163780052400    3.98944117231047
H         0.42005776495528   -6.16164709514744    1.73501051719622
H        -0.11552315733660   -2.13807138980477    3.07136676056180
H         0.59889215833248   -2.79200332329496    5.32697604540451
H         2.94697803758228   -4.22631691905052    1.35332233201912
H         3.94442335241597   -2.07394382245864    0.63897794952671
H         5.62665809359182   -0.95958564153412    2.05676609041500
H         6.34273417024152   -1.98340958146605    4.16038325312362
H         7.19567987819011   -5.00250241822978    4.33812060172077
H         7.33742575771124   -3.53402359478544    5.34714645977505
H         7.30162490867134   -7.20524120893465    5.33524783662613
H         8.08923581896861   -8.57240573478122    7.23346693475418
H         8.27857017437432   -5.07461322157864    9.68130141228204
H         7.54366948795513   -3.70502996059054    7.78114366455767
H         5.23222718104119   -4.12371482454163    7.24724611916945
H         5.16779071274769   -2.60615100012232    6.30960151590803
H         2.95470882265950   -3.29920843536044    5.38131561365844
H         2.94035006906969   -3.13430261633615    7.15864770293054

