35
CSD_code = HINVOP | q = 0 | S = 0 | Stoichiometry = C14H14N2O4W | MND = 6
W         8.06610687087707    1.55029806194399    0.04314493780686
O         9.42937912814966    1.06395001173111   -0.82836239683285
O         6.70289047286283    2.03711870476872   -0.82818768054236
O         7.41890911690378   -0.23181288364178    0.66593658618274
O         8.71370306355082    3.33184353037377    0.66695972301866
N         6.76628392298938    2.00288848082886    2.02821794140356
N         9.36571354894329    1.09619030224340    2.02798320397802
C         7.52301597357570    2.09122656823310    3.28757554787035
C         8.60829391225240    1.00524857873387    3.28670345009378
C         5.82576901680980    0.89849817421631    1.99400355098120
C         6.21586415133897   -0.22362512801614    1.23332846147574
C         5.34042223449414   -1.31407328751460    1.16519068915765
C         4.12482212704910   -1.27147972460825    1.82133282038984
C         3.75249253244260   -0.16113426091585    2.56319128814258
C         4.60627971222923    0.92674647184015    2.64816137317927
C        10.30571568028602    2.20105883957044    1.99598159383748
C         9.91630454366269    3.32339782357207    1.23528237884222
C        10.79182773901212    4.41385675866825    1.16820056960706
C        12.00663287383933    4.37127653827123    1.82578286062949
C        12.37800201403394    3.26101191806185    2.56826068872507
C        11.52427895305686    2.17299883559165    2.65192327998990
H         6.25913202473192    2.87557890383272    1.86448048730269
H         9.87330627304908    0.22401221713598    1.86277352192737
H         6.87269608370363    1.95725885766164    4.16413245483958
H         7.99571906948386    3.07835846296528    3.34362762503725
H         9.25806714901111    1.13752193690593    4.16392024376345
H         8.13569647229965    0.01794080515160    3.34053656539847
H         5.63146325337207   -2.17052358079027    0.57655767843104
H         3.45464150356818   -2.11481989051697    1.75081800866778
H         2.79838552804284   -0.13695667992729    3.06552895266769
H         4.31632812312271    1.80420894550067    3.21029729976148
H        10.50143348107312    5.27033052694636    0.57927990846284
H        12.67700642637591    5.21452388522976    1.75598007338213
H        13.33138181686375    3.23683666067275    3.07198430132879
H        11.81353520694332    1.29544463527975    3.21427201109370

