88
CSD_code = HINWIK | q = 0 | S = 0 | Stoichiometry = C28H54O2P2PtS | MND = 4
Pt       13.03774174714695  -12.63399777874636   22.19819099289269
S        11.78785819304050  -13.37594288666848   23.89655236552304
P        13.01226678362003  -14.88550908940307   21.45092203467355
P        14.43619605070198  -12.17800279296450   20.42987938805680
O        12.58981910350000  -13.49632312229402   25.10578471549979
O        11.21396750150101  -14.65209027702824   23.42824222097047
C        13.94605238587377  -15.76304583519896   22.78963498342392
H        13.23164460688743  -15.76058581326604   23.62120613500177
C        15.14339811127721  -14.90321728107961   23.19906264795655
H        14.80993039017079  -13.86801748183233   23.37301816778380
H        15.89162294686619  -14.90543340971457   22.40153303394183
C        15.76989637871348  -15.45295537103758   24.47466426260768
H        16.62626229473732  -14.83996632909430   24.76489130729906
H        15.03258762273478  -15.40141599827455   25.27695815311421
C        16.21051959884623  -16.89833458151774   24.26028342313403
H        16.63377115163123  -17.30147859121141   25.18253171688731
H        16.99101225619909  -16.93069893337261   23.49440801786706
C        15.02995116654716  -17.75675307319587   23.81609992757786
H        14.28015397606428  -17.77150469416539   24.60946597989007
H        15.35949670389679  -18.78488723187458   23.64513831846466
C        14.39248801994227  -17.20064992057952   22.54212013667642
H        15.12292684388583  -17.24164769178342   21.72854794556589
H        13.53935312068226  -17.82496684330947   22.27294488350671
C        11.63289851114553  -16.04152208342603   20.96772635028387
H        11.34189443143003  -16.50304900402589   21.91728009444717
C        11.94630581225861  -17.13080952692566   19.94400002564746
H        12.81420927093181  -17.72057528494167   20.24093381967422
H        12.15959126296584  -16.68768548465615   18.96885798158165
C        10.72817859583603  -18.04252114995485   19.79729976494928
H        10.94897023435520  -18.84156910802703   19.08513161725940
H        10.50172159630665  -18.50465449252379   20.76043543745493
C         9.51972825474064  -17.24113925972714   19.32251104848665
H         8.65008779627231  -17.89592767822739   19.23518496042631
H         9.72712401357354  -16.82938438150888   18.33114048508887
C         9.22038315217312  -16.10186159688489   20.29277111603472
H         8.93767648876861  -16.51509535506731   21.26272250585426
H         8.38053825478376  -15.50952136509806   19.92243049333391
C        10.44572939286657  -15.21222212014773   20.47496433770358
H        10.69411038113855  -14.73081986229678   19.52495881021988
H        10.23382672868903  -14.43759913424796   21.21411858686141
C        13.55076699111537  -11.42349337272939   18.98294672793264
H        14.10601160992102  -11.59630582166554   18.05291561203156
C        13.36713688413807   -9.92404592006667   19.21939515982038
H        12.93043618387176   -9.78711298668612   20.21250357077996
H        14.33272953293367   -9.41595285916932   19.19506187506243
C        12.45259383766739   -9.30128596112432   18.16761193502256
H        12.33170934009919   -8.23650723622239   18.37545851298707
H        12.91327681295636   -9.39856639736153   17.18105900821783
C        11.09365993198984   -9.99073716254632   18.16052089787143
H        10.44677054937969   -9.53729662317919   17.40720110937435
H        10.61890557489125   -9.86487269802191   19.13522607269266
C        11.27229698373791  -11.47653291550323   17.87384088537704
H        10.30355287117594  -11.97976021221632   17.88077692700451
H        11.70845918362641  -11.60354257851449   16.87929546306750
C        12.18526890295440  -12.11164354481599   18.91636665317293
H        12.31884180995386  -13.16974442853991   18.68774603192122
H        11.72041867314679  -12.03717220346482   19.91136898439648
C        15.97620520206736  -11.17253108931859   20.66253377482502
H        15.61786232210147  -10.15242943805923   20.84714146584951
C        16.93829708171489  -11.15087294514647   19.47694580330888
H        16.42615875848105  -10.81220314488418   18.57385863113649
H        17.32464145146209  -12.15472058632636   19.29190521873711
C        18.10880348926069  -10.21841003737745   19.78782982108396
H        18.80713672180054  -10.21016078031858   18.94828517619455
H        17.73494204147006   -9.20081696434880   19.92174429146162
C        18.82846178621526  -10.66313495400571   21.05831626714353
H        19.25422130805857  -11.65719154892338   20.90278283938440
H        19.65085057866842   -9.97903398720747   21.27523356200831
C        17.86129915889324  -10.70627714697842   22.23894295522249
H        17.48327692124382   -9.70107117676461   22.43612294695967
H        18.38240450153397  -11.04912837768510   23.13428049789095
C        16.69274574253140  -11.63750918894318   21.93058935912894
H        17.07598811651960  -12.65095179502864   21.79686241112660
H        15.98114084774579  -11.65092596932418   22.76118028562544
C        14.12493808316356  -14.97113009878413   19.93716842942173
H        14.67829305837496  -15.91260700571524   19.92217395462028
H        13.45083447760516  -14.98025588554490   19.07890909058359
C        15.09036392757186  -13.79560679845426   19.79321800716426
H        15.38652123905364  -13.67337650371157   18.74581569034753
H        15.99463189092843  -13.99134744288213   20.37373734931334
C        13.02253574620465  -10.77767388877064   23.11301772665576
H        13.17101430352919  -10.93532613855515   24.18365866833433
H        12.04270606360389  -10.30646087280404   22.97760270517201
H        13.77888440340981  -10.06772373592190   22.77238080578776
C        10.30328642294432  -12.38886534806946   24.37399812376626
H         9.75977141498910  -12.15355624060760   23.46627660200487
H        10.62491626451314  -11.49368912290504   24.88924041706480
H         9.71143986814917  -13.01925694943361   25.02490350215448

