75
CSD_code = HINYUZ | q = 1 | S = 0 | Stoichiometry = C32H36CoN4O2(1+) | MND = 6
Co        3.09654505679211    4.29315159456931   10.62672344046454
N         3.39813412445894    6.04720225794021    9.89664742737034
N         4.02987496405907    3.48815304459248    9.14994369013996
N         2.89849496570478    2.52629268970510   11.45464114159768
N         2.02576252223387    5.08649532614764   12.06633938121031
O         4.67174037874897    4.52278139520803   11.64188193240827
O         1.49479966678684    4.04274005013846    9.65917276901019
C         4.86134070179702    5.60031955298119   12.33188025245213
C         5.62488271511115    5.52533246092372   13.51792022325645
H         6.06308176253009    4.57053538692686   13.76642176988009
C         5.77040344715214    6.61002963506881   14.34265899265825
H         6.33786064744211    6.51784209564785   15.25633874981480
C         5.16632274127061    7.82490620905685   14.01947264636065
H         5.24704312052586    8.66508896489606   14.69045339405107
C         4.48960246062923    7.95183311085667   12.83164951423251
H         4.03948828510079    8.90221067423461   12.59075879609071
C         4.34674088766404    6.87238064049674   11.94538248023870
C         3.82523219121835    7.04463214858909   10.60667201113428
C         3.88637977435515    8.45840251342405   10.08843831877963
H         3.80404703369611    8.53830001785116    9.01233847964129
H         4.81789239708685    8.92678256667197   10.39543740963459
H         3.06462336696016    9.01997229093312   10.53429719303191
C         3.15835852465030    6.22700403396201    8.47218189073284
H         2.56928724102212    7.13135972060755    8.29418591863604
H         2.56510975526445    5.38560611835977    8.11528262905468
C         4.48524942022716    6.28895452259731    7.69721860235057
H         4.30262358080013    6.75497930844265    6.72713263984289
H         5.19538534614295    6.91310903922217    8.24255498893831
C         5.11557720666077    4.91753918766537    7.46058264152104
H         6.09557227612075    5.06439889062603    7.00273072474124
H         4.49438191088012    4.36171128785294    6.75599301929585
C         5.29068514764869    4.09445323013634    8.74781401538314
H         6.05788927498775    3.32711135486084    8.60961332914420
H         5.63178965928666    4.74356666644572    9.55374235497821
C         3.57156907752057    2.46658205587752    8.49586178892782
C         4.37792564552793    1.71916871805596    7.46513313241745
H         5.25728953092292    2.24905504066106    7.12301749086455
H         3.75829438665846    1.49239780982347    6.60141968353881
H         4.70060650731537    0.77477774929665    7.90493027311243
C         2.21240534253987    1.99560506198408    8.65253094571929
C         1.81340321675610    0.72099627013581    8.21954571250015
H         2.56048619235352   -0.00071930900102    7.92816352084045
C         0.49124581335602    0.35306238134118    8.18206346603734
H         0.21250172980075   -0.63776675276532    7.86078837750598
C        -0.49185233562629    1.27621454999362    8.53797620454752
H        -1.53436080903173    1.00418258019909    8.47122859338537
C        -0.13911445093979    2.51839201921514    8.99661596208359
H        -0.88637764460857    3.23531003498748    9.30162400276026
C         1.21549734250945    2.89674617285111    9.12845930385120
C         1.72338006492600    2.03514456456953   11.85417428983185
H         0.86450256084306    2.68438639979822   11.76681027043048
C         1.57066010617978    0.75724289280720   12.35022917182746
H         0.59147956098486    0.41600408380352   12.64685206689745
C         2.67662670023551   -0.08227000058944   12.46320785350354
C         3.90233420023050    0.45339501555709   12.07855689025372
H         4.80493558845845   -0.13200779509649   12.16020186334678
C         3.96905476612037    1.74187282290776   11.58666372562686
H         4.91721503657049    2.17510538726238   11.30469801389358
C         2.54772498090634   -1.47971155374552   12.95850383958926
H         3.49073230328664   -1.84447128399871   13.35650051487904
H         2.25413572381365   -2.13027272920554   12.13415834800442
H         1.77950546824819   -1.55160512306495   13.72436592757897
C         1.05583336952570    5.94858898554878   11.76021050048718
H         0.85272747515035    6.08676483810703   10.70860023571994
C         0.31968936673701    6.62429324738161   12.71389553740300
H        -0.45001412945493    7.31275821949530   12.40144956376806
C         0.57682767453150    6.41849042570581   14.06548852802143
C         1.56975056025764    5.49013115537481   14.37342984993225
H         1.81041425861578    5.26750674118042   15.40094966549948
C         2.25504375897505    4.85288528955497   13.36088412477582
H         3.02613780564462    4.13566870258717   13.60133792708087
C        -0.17658925320820    7.12903176474406   15.13444811227754
H         0.50748485936969    7.53132207040557   15.87878974344883
H        -0.84023811218438    6.43115465682053   15.64463006797556
H        -0.77607679483960    7.93680885180054   14.72470214177719

