39
CSD_code = HIPBUE | q = 0 | S = 0 | Stoichiometry = C18H14Cl2N4Pt | MND = 4
C         4.43526380684444   12.59341654857678   -2.07509577815609
N         4.86410348573185   11.37213277734464   -2.42013908588222
C         8.29732873218343    8.84063910765801   -0.00912571396268
N         7.47468245427691    9.97015770814383    0.20443868519112
N         5.82193082778130   12.25441705548254   -0.09647534724422
C         7.10398813094727   11.60009240903977    1.83580786761437
N         7.64243084603198   10.47670263742062    1.36330528875035
C         4.92020453529615   13.15799179160304   -0.77082139988625
H         5.41494511783462   14.12161965567559   -0.96981633450781
H         4.03902400733019   13.36532666360778   -0.14424066991827
C         6.23348286380991   12.51880229484104    1.13766636550195
C         8.40295669510902    7.84856441357806    0.96122566055989
H         7.82583016097130    7.93804267331388    1.86850802737481
C         9.04747549440950    8.74778093829818   -1.17971861541519
H         8.98118315537153    9.53819399134631   -1.91583902928539
C         4.44623458630740   10.84140026364890   -3.57274321936636
H         4.82322775095494    9.85156564865947   -3.79743162796957
C         3.56795745170802   13.31713583611308   -2.88416564471813
H         3.24331640085662   14.29804120996005   -2.57229921739770
C         5.86345694719066   13.69567996688683    1.84570912940888
H         5.23326777311867   14.42508033590492    1.36123229985065
C         9.94066636053656    6.66197132317326   -0.42995216943301
C         3.58463072694108   11.50246304510288   -4.42487131380471
H         3.27370151022426   11.03324543790965   -5.34392054930121
C         3.13322241263016   12.76837427359030   -4.07665928675915
H         2.45886990580993   13.31376937997759   -4.71872085624335
C         7.10100434192257   13.02776056746701    3.80422367150929
H         7.41365520224797   13.23493476201653    4.81542234841083
C         9.21710309131540    6.75292580231917    0.74865981595433
H         9.28825712434945    5.97168334865620    1.48889633593721
C         7.50368444322447   11.89531965999935    3.16246546427601
H         8.15002366133134   11.17569866830383    3.63987536840609
C         6.27438862290165   13.93599204123512    3.12505723293730
H         5.95929094126554   14.84226895398373    3.62193612924252
C         9.86676287133596    7.65818779447075   -1.39298436084238
H        10.44378078807191    7.57725356400230   -2.30033709366620
Cl       10.95846257971059    5.29402285006604   -0.69900141213264
Pt        6.18645589557400   10.57852363259417   -1.11365478907577
Cl        6.28474829654357    8.61442096802941   -2.29101617595846

