74
CSD_code = HIPCIS | q = 0 | S = 0 | Stoichiometry = C29H34F6N4Ni | MND = 4
Ni       -0.56539497281473    2.16279715029019    5.63612968594635
F         2.81743689036936    1.21673308454454    5.25708426393055
F         2.56614730323021    2.96427412759745    4.04535810861365
F         3.60555531579460    3.09559153708027    5.91726572984047
F         0.93416530806946    0.69996942539533    7.01958921642660
F        -0.02690805312776    2.35081377796085    7.98312084276016
F         2.10394968761671    2.12940523194337    8.12349980872851
N        -3.41950561869473    1.47942530667113    6.19039337431333
N         0.59006117065993    0.43011488367682    3.46593851336318
N        -1.06977949462080    4.11797702088729    6.00962328047612
N         1.19537360513742    4.22937375086174    6.22484986579025
C        -2.29718960761363    1.60872199216788    5.93086736624244
C        -4.78657569607944    1.32488314685278    6.48614845018643
C         0.13382095479652    1.10051098180074    4.29536671513913
C         1.20547252636279   -0.38695214949722    2.50057888834746
C         1.22886832927673    2.87528545087640    6.00537213146986
C         0.01768730698667    4.78538185251668    6.37631195758020
C        -5.07151301029960    2.06506236983351    7.79453591222499
H        -6.11996340028633    1.95301577291664    8.05740015719450
H        -4.84487137880345    3.12280785037834    7.68188558401816
H        -4.46183208491757    1.66194290548967    8.59980902937888
C        -5.58188642705513    1.93536066671267    5.32939033956577
H        -6.64588752105080    1.84111221071058    5.52857903465868
H        -5.35115653562525    1.42419518757412    4.39750022585931
H        -5.33312650853969    2.98857707278023    5.21990140269262
C        -5.07324445981097   -0.17319545371855    6.62428726440171
H        -6.12531498232212   -0.32501631993961    6.84968327968718
H        -4.47782880924560   -0.60213670540140    7.42692539070843
H        -4.83412514230967   -0.69375598967580    5.69964076536481
C         0.10796596938474   -0.96646784002400    1.60399499905955
H         0.55374099883571   -1.61260833667203    0.85276973720980
H        -0.43442524919871   -0.16811160646911    1.10266089910438
H        -0.59706378443186   -1.54852654684515    2.19323659718956
C         2.17420850497145    0.48223358715946    1.69545731489400
H         2.66385954359637   -0.12182099903338    0.93646087551246
H         2.93086165239328    0.90884605417030    2.34791849033653
H         1.64249598850021    1.29757047029203    1.21077589876573
C         1.95218966794118   -1.49506029371831    3.24851496157467
H         2.46791673245067   -2.13368922364906    2.53656815456848
H         1.25696128793999   -2.09921250856529    3.82673454115167
H         2.68007979555597   -1.06209600640091    3.92976423064286
C         2.54341531780647    2.53910384189692    5.31918005590058
C         1.07114408554010    2.02627548672204    7.26758707419430
C        -2.35100634493230    4.68706061013027    6.06938535459522
C        -3.05875024280352    4.80096709884283    4.86020609397349
C        -4.33792163517385    5.32942082539615    4.86497488366305
H        -4.87181813197043    5.42580182523616    3.92895674794802
C        -4.94574835981201    5.74438185238622    6.04314919924957
C        -4.24656061407054    5.59592824663755    7.23143422270228
H        -4.71324676130309    5.89841501297144    8.15942302043560
C        -2.96318882333899    5.06842981041320    7.27096969128847
C         0.01266337744223    6.19113918186379    6.83056164468283
C        -0.75857257904835    7.16643701509253    6.20838237755344
H        -1.37128989681639    6.91304247797523    5.35722356209280
C        -0.72818137579108    8.47080633302916    6.66802484230399
H        -1.33041928592559    9.22307364261766    6.17962915127117
C         0.07103608565835    8.81447825945779    7.74519925105000
H         0.08741764462745    9.83344511185172    8.10373625318955
C         0.85833294536755    7.85108646802280    8.35427536476065
H         1.49402900096241    8.11776864568045    9.18593860932487
C         0.83368083591651    6.54667547004349    7.89724096445685
H         1.44681193876270    5.78929452646539    8.36212697494917
C        -2.41240775393639    4.36329356470708    3.58223373612340
H        -3.14968008909952    4.24289924535172    2.79215910849811
H        -1.88184399970282    3.41468058162270    3.73578279997867
H        -1.67082136879325    5.09486760124864    3.26091630662488
C        -6.32184606518682    6.33911487635340    6.03143744257956
H        -6.25740970894489    7.42469903124005    5.95058424294705
H        -6.85483277731032    6.10368860759509    6.95023810253168
H        -6.89735941667356    5.97272483858402    5.18407574298742
C        -2.28080570831836    4.89172194703164    8.59268790651525
H        -1.65537366038384    5.75542123990530    8.82019476787886
H        -1.64543739167336    4.01014866481521    8.58551711606357
H        -3.01623504371985    4.78857516907158    9.38837410261663

