71
CSD_code = HIPDAN | q = 1 | S = 0 | Stoichiometry = C28H34AuN5O2P(1+) | MND = 2
Au        7.47440579917646   10.90929792289106    2.84502847677459
P         6.74701345320199    8.79468937174120    2.50782157844609
N         8.21064319628196   12.86441158953230    3.06601656062338
N         8.52513523690922   13.53759438848480    1.95856182227011
N         9.13609267217334   14.59038996582467    2.24360949443416
N         9.24727949113312   14.66722929799340    3.57728253690681
N        11.91188260450488   19.01863667099280    5.89478794646433
O        11.49683562891103   19.41869993321979    6.95512329728463
O        12.85468029875577   19.46212261551227    5.28708366266128
C         8.08643005229435    7.59921847450255    2.19930146002456
C         7.76136814084417    6.28323088214141    1.86051002237700
H         6.72676771177432    5.99804470652483    1.76417023444038
C         8.73865229387727    5.33410708224601    1.63838637972442
H         8.45883398675122    4.32540120928873    1.37646614563971
C        10.07377153945209    5.68422781845103    1.75389976152906
H        10.84710412050584    4.95096407142858    1.58727032507406
C        10.41074113189371    6.98420525260400    2.07608718090065
H        11.44955310301340    7.26913832068141    2.15682636558303
C         9.43645964614814    7.95608309053625    2.29681194386064
C         9.95327815512447    9.31296998277680    2.59581930958429
C        10.32090306478064    9.66412614905423    3.89223878807262
H        10.13873746139345    8.97509256444829    4.70396942214998
C        10.94361496967463   10.87541254722686    4.13873868018240
H        11.23983287692699   11.12896745743500    5.14625381458270
C        11.21793693135658   11.74324625678533    3.09459372424560
H        11.73139351576632   12.67509810544890    3.28688421263826
C        10.86126176377397   11.40114886706842    1.80030254359833
H        11.08076162455741   12.06872270801625    0.98107261698196
C        10.23548438689236   10.19246085781665    1.55130264261301
H         9.98461591365427    9.91158853940624    0.53899182035984
C         5.92216589726265    8.17290465029452    4.08370490765780
C         5.51695924224154    6.70170283728589    4.09633663835274
H         6.38693881558667    6.05272262065099    4.03104396931006
H         4.82536536092385    6.45619280808149    3.29640875517309
H         5.01708295588591    6.48939017058167    5.04030736871466
C         4.70965849830340    9.06072658841916    4.35943822499064
H         3.88834386122327    8.82983860774521    3.68526963152102
H         4.96836710087161   10.11562973632294    4.25313349120466
H         4.35859038804064    8.89935940013974    5.37700227518287
C         6.98127524703669    8.39602259795917    5.16765093445457
H         6.58882913732789    8.09677936291964    6.13729783748355
H         7.26852530942846    9.44712313089864    5.22340802043036
H         7.87149710755448    7.80185029036270    4.96411375928299
C         5.64471658927716    8.77859012387822    0.97141059362840
C         4.86957009451756   10.09998822605731    0.96659716949372
H         5.54822223755439   10.95314195482761    0.96033116426240
H         4.21218523492759   10.18607254471400    1.82829791290425
H         4.25496285686600   10.15526883224700    0.07023283073074
C         4.64488891428994    7.63305185690673    0.83989802746584
H         4.10131493643007    7.75669983013110   -0.09580917246229
H         3.91549405725534    7.64625768790133    1.64626923424588
H         5.12488917167298    6.65987970608579    0.80345890288715
C         6.62583034950715    8.77912671508717   -0.20359555706787
H         6.09617184321575    8.99635766883862   -1.12874310298550
H         7.12057038934466    7.81594422340893   -0.31243087548588
H         7.38770494214500    9.54837229877538   -0.06140613775847
C         8.66203806356967   13.56270652849331    4.09541569154570
C         8.57420926836164   13.17246953321958    5.51089681968752
H         9.42802074480585   13.55159240112575    6.06811985928473
H         8.54533723503481   12.08726466671987    5.57829423565791
H         7.66017029352732   13.56259545039470    5.95948529986217
C         9.90188949637211   15.75183763600857    4.18814007301927
C         9.45642039297893   16.26765683299947    5.40088285699908
H         8.58621176070665   15.86325658924573    5.89071773632625
C        10.12202412262945   17.34236754382438    5.95927833975739
H         9.80397254890461   17.77206718843379    6.89702612318910
C        11.21325571330150   17.88709380372587    5.29774016389709
C        11.64653364855510   17.38757423478130    4.07686888757948
H        12.49055710620640   17.84717215323134    3.58548538862737
C        10.98533215199163   16.31286162119753    3.51693868458625
H        11.28893614691673   15.90786265037617    2.56467027052873

