30
CSD_code = HIPLEX | q = 0 | S = 0 | Stoichiometry = C14H10CrO5 | MND = 9
Cr       -0.14872895159223    2.65671030122064    2.60340730380301
O        -1.54268959535429    0.67188531087316    5.92688613555016
O        -0.79943463219928   -1.48050299970867    4.08164367134884
H        -0.60137428242887   -1.51613315255770    5.02608866393260
O         1.71230394757844    4.25872973920106    0.92249945920786
O         2.03590696197753    3.10110639760359    4.58058602597039
O         1.74556562782107    0.56182285573592    1.66110950731182
C        -1.74233560807255    0.65136489746283    4.73055888084349
C        -1.92281458344313   -0.65201427276081    3.90744687753371
C        -2.00031745437941   -0.19980332186682    2.43206527590747
H        -1.14766192845200   -0.62444796284848    1.89757864038628
H        -2.91292717570727   -0.55640025763386    1.94863984640080
C        -1.94042037974088    1.29644359113651    2.47328735399332
C        -2.06466768834638    2.19746752418838    1.41432832092173
H        -2.23064332555859    1.85008341360379    0.40176676048860
C        -1.99968716387575    3.57237639078940    1.69834718657394
H        -2.14186903197653    4.28475410288335    0.89363747574725
C        -1.91986088241022    4.04765569647137    3.02448377588416
H        -1.97839938345861    5.11212935652459    3.21516521295421
C        -1.78498306802140    3.14983324861275    4.08104036874773
H        -1.76382271225481    3.48562983102425    5.11136402864604
C        -1.82843743027402    1.76385595154457    3.80329825150218
C        -3.21602038283404   -1.29009898172100    4.35745832515028
H        -4.08979880788496   -0.66725903957192    4.21618598757087
C        -3.30301626814738   -2.48682937930534    4.90533258614549
H        -2.43330267676848   -3.10779912824237    5.03867287287160
H        -4.24555034898385   -2.89685032758283    5.22306790641987
C         0.96023317342750    3.66367310331435    1.56136504694474
C         1.16237302756077    2.93453391407491    3.85326202762257
C         0.98528102379992    1.34038319753377    2.03362622361874

