76
CSD_code = HIPPEC | q = 0 | S = 0 | Stoichiometry = C28H44NP2Ta | MND = 5
Ta        2.56206123119398   -8.32548503546977    3.19667491797563
N         2.56315328236137   -6.02346148345301    3.19626373152501
P         0.20483346345148   -7.59527419493541    2.65631635258183
C         0.17433578556818   -5.97233490088826    3.44613235041093
C        -0.97699716982082   -5.34475296363661    3.90205340881532
H        -1.93477394929517   -5.83185883195941    3.77492380708409
C        -0.92857341847873   -4.10494498526327    4.51836372600764
C         0.31958716052310   -3.50899893483571    4.68855249672007
H         0.38403205247129   -2.55111350970939    5.18677007646488
C         1.47324905055682   -4.11318653980630    4.24748909342012
H         2.42813174642482   -3.63327673810844    4.41581271669510
C         1.44304805137722   -5.36236924971540    3.59851334858407
C        -2.17439023235151   -3.43792258067277    5.02133375035137
H        -2.30048401681352   -3.62611360912135    6.08897121490425
H        -3.05379739913934   -3.81767244768606    4.50511740207325
H        -2.12030314315178   -2.36039477980624    4.87671113528826
C        -0.21415900752291   -7.23808213730525    0.86973291593133
H        -0.24019089904863   -8.21590377908642    0.37279487173527
C         0.92931984726135   -6.41926236944962    0.27625447612471
H         0.77114393154685   -6.25991267033809   -0.78993519048813
H         1.88194935948677   -6.93330403321591    0.40753507872703
H         0.99088769996715   -5.44447691085596    0.75924433507384
C        -1.54913543501131   -6.52456669687817    0.68599870520832
H        -1.55939034211085   -5.58682527112085    1.23965204806076
H        -2.38098251841008   -7.13999881151524    1.02164721968101
H        -1.70369230779733   -6.29773412959506   -0.36828180193366
C        -1.25013585248455   -8.53703536028747    3.32364124618846
H        -2.17786189092810   -7.99036118408407    3.11916642165478
C        -1.27908503858836   -9.90047927132527    2.64017805367868
H        -0.30089895460363  -10.37409007736149    2.73568756851627
H        -1.52046646676534   -9.80957223592445    1.58319976130749
H        -2.02579123252304  -10.54184718545202    3.10547443714055
C        -1.05976548689804   -8.69415050539408    4.82783198012621
H        -1.87074134698317   -9.28098696261768    5.25613870067093
H        -1.03483064268473   -7.72472963342766    5.32374204672084
H        -0.11567317939830   -9.20863252735702    5.01885292678243
C         2.77444165898770   -9.61664718377968    1.64864762903686
H         2.79296934701824  -10.70384728445528    1.70263133338726
H         2.91463716565148   -9.29584710765374    0.61525120030513
P         4.92151676879411   -7.59524993879079    3.73601197610519
C         4.95197902831738   -5.97223124272403    2.94638756925363
C         6.10328580565555   -5.34464481001851    2.49046996630869
H         7.06105258966432   -5.83178934786233    2.61752210296004
C         6.05481349628077   -4.10486819213966    1.87411490728757
C         4.80663987593417   -3.50894315449539    1.70395014264433
H         4.74217211210732   -2.55105031045219    1.20575377060791
C         3.65299370228049   -4.11314493054855    2.14503726534230
H         2.69810338586314   -3.63323020292199    1.97676703158156
C         3.68323554039459   -5.36233501224438    2.79399052720312
C         7.30061987876278   -3.43788892986289    1.37109728469816
H         7.42683093776031   -3.62637015178736    0.30352370931708
H         8.17999573969135   -3.81744365933012    1.88751394838982
H         7.24641798335938   -2.36033263728003    1.51544113937120
C         5.34039173962151   -7.23810974885870    5.52264963159127
H         5.36645343385285   -8.21592615773737    6.01959872282519
C         4.19693462248777   -6.41931068111657    6.11621282989765
H         4.35511220511167   -6.25998310292120    7.18241173220813
H         3.24431542587724   -6.93336280796339    5.98490325166369
H         4.13535149103555   -5.44450756095143    5.63326230778205
C         6.67534275863388   -6.52455405999691    5.70644454344491
H         6.68557944154970   -5.58680987842436    5.15279649686252
H         7.50721141923496   -7.13995803665198    5.37080086902983
H         6.82989905378945   -6.29771238461181    6.76072525387718
C         6.37646062092572   -8.53705199065989    3.06877836475624
H         7.30418982179891   -7.99040792798596    3.27332497085361
C         6.40523406588307   -9.90051824441982    3.75220699506532
H         5.42702862007498  -10.37407604597302    3.65658932795185
H         6.64652439267081   -9.80966157232876    4.80921237941980
H         7.15195073954907  -10.54190388635661    3.28695820938371
C         6.18603554686566   -8.69408194377883    1.56459766424033
H         6.99699043216845   -9.28094522444521    1.13630188425725
H         6.16116059013711   -7.72463841156569    1.06872657482774
H         5.24192446250537   -9.20853272846058    1.37354177744245
C         2.34969798714134   -9.61690514277441    4.74404389750959
H         2.33429241902511  -10.70417200834259    4.69025385193308
H         2.21240096215486   -9.29599381966719    5.77779162956763

