51
CSD_code = HIPRON | q = 0 | S = 0 | Stoichiometry = C18H28I2NiP2 | MND = 4
I         6.66517966228366    1.81321023194952    4.08140051227876
I         5.11149132349142    2.13260314360775    0.81272404010611
Ni        5.72048883850860    0.33122523713219    2.36616392226473
P         6.37419685345924   -1.34683707485766    3.55240196769105
P         4.72285689484884   -1.05672993379575    1.05116246693523
C         2.88435516640433   -0.98915312943800    0.75526515218605
H         2.52857650777235   -2.01780953105297    0.90728599881500
C         2.74323650876889   -0.61231920879087   -0.72178094251021
H         1.74264759181408   -0.85215168409024   -1.08490882363289
H         2.90146281117513    0.46167838461178   -0.84310994812582
C         3.81839940099412   -1.37689431040099   -1.48745493440527
H         3.88630934275973   -1.03347451897597   -2.52049747733735
H         3.58176827017482   -2.44362919010357   -1.50834133300094
C         5.14731528664749   -1.13635946505140   -0.76266373922612
H         5.49824000246668   -0.12954409413936   -1.02390188456060
C         6.25291627190196   -2.12592678452397   -1.10433477702337
H         5.95550466815411   -3.15347567619869   -0.90066158397418
H         7.15248081878948   -1.90947239274916   -0.52726221726955
H         6.50320818357300   -2.04559691154626   -2.16074427319272
C         2.13184137805400   -0.07255093375624    1.70996053878864
H         2.43597835533745    0.96447587732832    1.58189465078861
H         2.31309197597196   -0.36265107277889    2.74640356565040
H         1.06098689233061   -0.13368765867443    1.52331625745000
C         5.83359878699386   -1.49580769874868    5.33065967825681
H         5.68195557985549   -0.46556047028524    5.67798482297182
C         7.03692410829911   -2.07811742453526    6.08004492184091
H         6.98002322698276   -1.82277393453866    7.13896117827585
H         7.04292528622506   -3.16822876964758    6.00219305639853
C         8.29253552999993   -1.49542710375005    5.43909401610429
H         9.19670197209261   -1.97642952888526    5.81550334335354
H         8.35608882816407   -0.42815556523513    5.66290173750326
C         8.16560805483419   -1.69662167179178    3.92668838906938
H         8.30814831044613   -2.75890468462310    3.68446528113964
C         9.15106986704888   -0.88072025144996    3.10135919708802
H         9.07724268634087    0.17954131832802    3.33429301967608
H         8.96555336036835   -1.01657125857469    2.03451711712163
H        10.17032657408862   -1.20049157097993    3.31158111580501
C         4.53020817864064   -2.25892107159098    5.52400079805949
H         4.62878970223204   -3.30608962842739    5.24152788899631
H         3.73389196711246   -1.81671713757476    4.92418730972574
H         4.22912255386978   -2.21358302255299    6.56915454649945
C         4.97522201666522   -2.76509751855431    1.66102209113708
C         4.43062136056714   -3.89451489167664    1.05905546199130
H         3.77790136648426   -3.79899115700987    0.20332566287159
C         4.72090142095381   -5.15104821917848    1.55580426001412
H         4.29777247879394   -6.02594619079132    1.08493453883912
C         5.55839580518528   -5.29059899313174    2.65221911179977
H         5.78878895312306   -6.27427367265895    3.03368376340377
C         6.09271521274859   -4.17309081692593    3.26517392584195
H         6.73734238875329   -4.29573119706566    4.12364839992148
C         5.79959141746312   -2.90405717185811    2.77709822759411

