111
CSD_code = HIPSUV | q = 0 | S = 0 | Stoichiometry = C43H63ClNP2Rh | MND = 4
Rh       15.95711738725985    4.25487094009846    3.18433586730090
Cl       16.33767962023796    4.36312579248773    0.99039881084997
P        16.92489335918068    2.29796008811086    3.57841064508891
P        14.82447712350621    6.15266109754555    3.37550387779706
N        15.71813628577812    4.23176058906252    5.19803038295079
C        17.76889893675806    0.79413643386519    3.01177510198735
C        17.00450634645236   -0.33881418369823    2.67754540895681
C        17.65182069976916   -1.56573087389484    2.61273821676219
C        19.01198743507482   -1.70018788366911    2.83926328188032
C        19.75051303346754   -0.54195381421806    3.02707993956451
C        19.17023177299495    0.71668978672278    3.08674768091909
C        15.52245778825177   -0.24719992111161    2.30692111313303
C        14.65280364127811    0.21095252169045    3.48819345297824
C        15.37598680386604    0.73326989646388    1.13603421754297
C        14.95732585113038   -1.59527224955279    1.83270409586307
C        19.72132559614800   -3.04564484523276    2.84023918942248
C        18.76164123109785   -4.22321613779907    2.64778869848235
C        20.74626349064098   -3.07233502276967    1.69755945564333
C        20.43643874913382   -3.23089703471858    4.18614826343027
C        20.08857783135145    1.93546939718411    3.20233607145140
C        21.45471545835565    1.64590534706750    2.55366788204893
C        20.32631689359681    2.26337479340185    4.68302021843645
C        19.51146189703266    3.16290757121963    2.48367349277468
C        16.88654270732779    2.15049343850893    5.26107813341583
C        16.23465898263163    3.22109376785941    5.94410350173108
C        16.13007566789676    3.21747518783871    7.34021138041413
C        15.48769532645886    4.25486093750443    7.98530715117440
C        14.96002202165178    5.28056393500437    7.22600112541491
C        15.08647632631038    5.25293303513289    5.83277480230196
C        14.53725163155812    6.30245438072081    5.03320610517029
C        13.95848031175510    7.54712920729955    2.59957809465519
C        14.59943396976346    8.79287202753517    2.49305981317828
C        13.81893458469294    9.90737615655404    2.20905229174181
C        12.45583934305191    9.82258219118863    1.98851667277854
C        11.88438066864627    8.55821868692070    1.97108795484004
C        12.60209162311066    7.40498810131769    2.24772571728359
C        16.10859133883372    8.98561154642676    2.66353995559965
C        16.59320830808854   10.25628365160897    1.94314663889034
C        16.43881008448471    9.14075205337603    4.15482709114630
C        16.90150450542192    7.81155307694621    2.07046695330142
C        11.58222775567852   11.03993621275478    1.72776392046639
C        12.36154104712226   12.35607645741225    1.80035897589667
C        10.46802930876145   11.08838037028444    2.78290385036866
C        10.96774362390978   10.92554702996029    0.32559431433809
C        11.89138760644968    6.05244317531346    2.14079007577885
C        11.44013973395713    5.59407563607462    3.53481119255033
C        12.79669468961527    4.98764105823070    1.50008578398531
C        10.63350344648073    6.15099388678154    1.25951658886604
H        13.98676580514032    7.10688043384268    5.49630595653089
H        14.44804798938537    6.11048567581836    7.68695661270955
H        15.39898648622295    4.26436557214675    9.06139472239426
H        16.55701817282599    2.39512747864109    7.89231165938504
H        17.29074990566356    1.31864992281023    5.81657134064872
H        10.83707687156586    8.48214849574697    1.74150430211870
H        14.28756404072772   10.87180578392694    2.16871847490615
H        17.07954100305701   -2.44677714920890    2.39541345692442
H        20.81633836238460   -0.63128317152989    3.13963302749102
H        14.68703448867296    1.29438417277070    3.61361757622226
H        13.61433447427132   -0.06053901001181    3.30756479837315
H        14.97499999044362   -0.26037116570387    4.41492276592810
H        15.71140350517643    1.73597965706263    1.39758184098227
H        15.96041971174903    0.39339113995058    0.28336893801177
H        14.33283338997871    0.80076753883036    0.83418486936876
H        13.92998926139534   -1.44998446515035    1.50428321477871
H        15.51861872730410   -1.98703986881441    0.98779979578871
H        14.94760454508790   -2.32957265298229    2.63548499500851
H        18.01002577482774   -4.24829123082609    3.43356943228168
H        18.26725216001191   -4.17356528593828    1.68045252335912
H        19.32103596948861   -5.15576989256409    2.68830100996918
H        21.24771744976884   -4.03736748646952    1.66626176912382
H        20.24903394610838   -2.91011776117794    0.74351059423641
H        21.50106391596675   -2.30099132778877    1.82250649922235
H        19.71765135346072   -3.18992012697839    5.00203912776688
H        20.93668293534538   -4.19659936306825    4.21510914451094
H        21.18230982974155   -2.45827992544968    4.35057474039371
H        22.04740475581101    0.94799350399731    3.13949194429321
H        21.32767364842972    1.24961976674456    1.54886701469913
H        22.02778244529734    2.56817154615251    2.48756541783720
H        20.72167539982452    1.39552026750973    5.20769487251468
H        21.04204341086104    3.07808650080115    4.77264264552357
H        19.39877553771845    2.56491306641175    5.16473971883082
H        20.31150907183988    3.84669707697680    2.20600558739466
H        18.98349088276463    2.87957141382802    1.57404435503572
H        18.82864133246910    3.73184232688505    3.12142616141625
H        17.68072969558581   10.28410268516014    1.95629975624484
H        16.26514204477297   10.26263624410602    0.90628435825154
H        16.24829436705928   11.16276642305764    2.43431644905307
H        16.19327617003642    8.23348720220539    4.70288294851011
H        17.50076451005585    9.34188084197783    4.28062957040691
H        15.87625930514972    9.96724644691689    4.58535243761906
H        17.03313640536551    6.99826921553824    2.78873280266590
H        16.41510703484447    7.41176758437395    1.18221283984533
H        17.90088030225152    8.13594862167191    1.78699518944663
H        12.81676421863663   12.48835401014334    2.77935841634715
H        13.13470416667006   12.39738996860779    1.03665661580997
H        11.68144364978176   13.18870048059660    1.63181710393554
H        10.89800215588528   11.15133661224490    3.78050398192554
H         9.83796961028818   11.96078943916746    2.62296421935526
H         9.83921120935135   10.20355821878980    2.73877474823288
H        10.36104354487634   11.80252052794863    0.10984506387830
H        11.75328598080042   10.85587732857175   -0.42393734403186
H        10.33602163789313   10.04598180788660    0.23866990950682
H        10.80668818743263    6.34928506955943    3.99682570945893
H        10.87348951033116    4.66862641875113    3.45434802404450
H        12.29529679823145    5.41739377530418    4.18379587256854
H        12.19539414708612    4.24331944422334    0.98195520190958
H        13.47662943753476    5.43000486248367    0.77411006604242
H        13.38976780237986    4.44355900865647    2.24321810692938
H         9.84707448886419    6.73345277073603    1.73358412342449
H        10.87056902454242    6.58596929413570    0.29127406223119
H        10.23191619783046    5.15327674270773    1.09528540913561

