157
CSD_code = HIPTEH | q = 0 | S = 0 | Stoichiometry = C60H93ClN2Pd | MND = 5
Pd        3.94445210850574    4.59448753917400    5.80861730146536
Cl        3.94628908638238    2.31326657433339    6.02443339879691
N         6.58155121273688    3.67868814392971    4.42488021330313
N         5.50529100696928    5.14706280240502    3.29466119899913
C         5.49219166349870    4.47407238578316    4.46703263991656
C         7.26971578587979    3.86766328817212    3.25466019537187
C         6.58521444240751    4.78262652937144    2.53446597580229
C         7.03086791372520    2.79045375622470    5.44383645522839
C         6.90393770453449    1.40902873200506    5.26583524834200
C         7.36855876521044    0.58900560367228    6.28639157121003
C         7.97002809900706    1.11742615549266    7.41214350471315
C         8.12125375470376    2.48349200984257    7.54795933302936
C         7.63888055376623    3.34490491928317    6.57321378779151
C         6.29196976476524    0.82307982199450    4.01428628445261
C         7.37397052238286    0.38864808770345    3.00458734410244
C         8.30191989131089   -0.72882505427011    3.47104344248187
C         9.32481604848380   -1.08799519934728    2.39475889319662
C        10.25691587536346   -2.20322859475070    2.85175660529351
C         5.29630743235754   -0.29734518928730    4.34306309208858
C         4.46538535533161   -0.72685838672634    3.13565526285380
C         3.28214772959946   -1.59353143270502    3.55924458357456
C         2.42129714955748   -2.00423024502135    2.37091586144061
C         7.85824618356120    4.83839221409824    6.66036376105575
C         9.24564392835853    5.14875870742939    6.06815607985208
C         9.43543298410043    6.61733056012833    5.69927660802949
C        10.78489685264612    6.86583686226972    5.02975810137025
C        10.96435151667675    8.32818620846070    4.64087444601043
C         7.69566257647814    5.39331200579462    8.07555415290663
C         6.34005817961088    5.03336869022285    8.68327010333766
C         6.04094401372681    5.92949842651271    9.88612793574676
C         4.86375790154015    5.45436098397940   10.72854547242122
C         4.49054656776828    6.03749221390816    2.84874810679846
C         4.69751046409174    7.41987115668864    2.93767584094951
C         3.70472474327408    8.25311841747888    2.43896141782981
C         2.53944664592167    7.73226653665620    1.90702500678671
C         2.34763042346718    6.36688287585950    1.84840256870033
C         3.32721068424052    5.48914918545740    2.30006721784565
C         5.95097616438306    7.98310122873919    3.57504451460380
C         7.11795637890945    8.05653074311830    2.56659928017193
C         6.71653312369437    8.53647180082460    1.17418104649266
C         7.92858586659090    8.65806556901383    0.25310924927305
C         7.53182770981153    9.11750690435474   -1.14416797499920
C         5.70645972373713    9.36096122311986    4.21395402971808
C         6.71891732077826    9.72986103987619    5.30268728077629
C         6.45629113332463    9.04685858003185    6.64319991584116
C         7.44388824121266    9.51415442870712    7.70565322661085
C         3.11234830201120    3.99650985051470    2.18624727873893
C         2.91053969191871    3.60562081827105    0.71447142664418
C         4.19811598207634    3.69464798830301   -0.10754512620281
C         5.17017662140647    2.55178519385866    0.18286048672030
C         6.42586810170579    2.63889599617567   -0.67547264672982
C         1.93479414261478    3.58474529479393    3.08896590363986
C         1.80918482105987    2.07029637345826    3.25480997055171
C         0.46792817796457    1.64084340888812    3.84800898254979
C         0.22966804460889    2.21562256161317    5.23848317208413
C         3.45672762534084    6.63980354494306    5.88077759094912
C         3.00005132467963    5.99202314459157    7.04478996779429
C         2.11625579914931    4.91279691925142    6.91842666691856
C         1.72931261417936    4.09031555191499    8.06967838692873
C         2.70114339201497    3.48942176668310    8.86964405307868
C         2.33780006859753    2.71690089303389    9.95507233902706
C         0.99992262715991    2.53297663438865   10.26283352323767
C         0.02620340834780    3.11330700178547    9.46703067687373
C         0.38565642628336    3.88004768224616    8.37538495027938
H         8.18288317009397    3.35327561167872    3.04086852908105
H         6.75380954750909    5.17626764358901    1.55407339115914
H         7.25373713396963   -0.47888619627697    6.20576046442397
H         8.32927664996006    0.45750544526817    8.18821731721646
H         8.61606638022728    2.87986629906222    8.42051611130164
H         5.70523764578198    1.61294362869974    3.53225611480903
H         6.87115603755865    0.07379870983955    2.08814649382338
H         7.98964838507113    1.25362606211633    2.74759187822744
H         8.83034688305690   -0.41387921719711    4.37307771408490
H         7.72036276532716   -1.61943903483592    3.71173986921698
H         9.91533727971134   -0.20264968744183    2.14484592645080
H         8.80189582798244   -1.40163216760122    1.48786162009120
H         9.69002849880225   -3.10257651806686    3.08242533434505
H        10.79949114343775   -1.90319396032888    3.74581878905999
H        10.97981887340351   -2.44333905295418    2.07534336363156
H         5.80619434882007   -1.16898167524753    4.75151703561944
H         4.62621333824040    0.09403746053864    5.10989424523073
H         4.08838425999632    0.16036232819048    2.62294678596897
H         5.08122579073853   -1.28722810564677    2.42775404573265
H         2.67500375476063   -1.03522115056727    4.27369193040695
H         3.65188211059004   -2.48810226109756    4.06590040884758
H         3.00746016019766   -2.56831427844456    1.64756764245814
H         2.01732423125414   -1.12533979214576    1.87286447829110
H         1.58934002657010   -2.62518359855466    2.69552075270216
H         7.09911565124725    5.33970103828373    6.04470527699226
H        10.01412226477664    4.84541090509491    6.78262312716681
H         9.38585118233613    4.54512250064775    5.16709485866976
H         9.36661044327386    7.23536086496751    6.59528977285138
H         8.63812402232692    6.92328823767170    5.01767058997420
H        11.58537852550110    6.57108010939479    5.71195346396227
H        10.86615658351039    6.24191153939399    4.13631019506441
H        10.88819113958259    8.96971894663304    5.51647073647859
H        10.20044533505580    8.62919470433195    3.92675572206742
H        11.93842132372596    8.48728605027920    4.18453377498885
H         8.49834608821534    5.03740963786256    8.72440832595983
H         7.77959642291647    6.48070379722175    8.02740018922049
H         5.56150535005122    5.14112164685381    7.90327290900323
H         6.34374742630310    3.98726494958339    8.99617340181334
H         6.93179724709054    5.96036368412342   10.52023890095012
H         5.85184355405433    6.94950932877003    9.53997960715041
H         5.03213227030363    4.43889200968927   11.07958364376215
H         3.93702037820231    5.46415310814629   10.16011948373241
H         4.73558468126384    6.09900019737989   11.59579090661948
H         3.83287474076458    9.32249527680731    2.46887275416604
H         1.77478962346703    8.40002004853959    1.53844836728217
H         1.42702662191908    5.97792469241968    1.44165823312442
H         6.24559325489938    7.29391362627652    4.37532643937843
H         7.87366535258942    8.73716434493196    2.96406800118864
H         7.58833315460881    7.07526784044927    2.47872173537946
H         6.22479083826406    9.50847335329972    1.24401974905268
H         5.99924016810662    7.83927473432709    0.73420627564218
H         8.63871260384246    9.36989317159610    0.68069817995863
H         8.43293383717436    7.69051409833611    0.18743421875668
H         7.05000766007335   10.09189232129559   -1.10245823258094
H         6.83630106882625    8.41250048142397   -1.59473279077089
H         8.40654014178262    9.19465292391358   -1.78554396681760
H         4.70700377478120    9.38570086487034    4.65347404258107
H         5.74498433564211   10.12476376298345    3.43506653464099
H         7.73219800006390    9.48983125406108    4.97421148521073
H         6.67694815066858   10.81107405577192    5.45737931842910
H         5.44124078251019    9.28088755319892    6.97454581852958
H         6.53015624333400    7.96312752159300    6.53164970159280
H         7.35277922606774   10.58667092973848    7.86444969341663
H         8.46621392792752    9.30392813014761    7.39777847744601
H         7.25916447491836    9.01277190488806    8.65330277563252
H         3.98816156120769    3.46374039760479    2.56779270146323
H         2.53544194117301    2.58364615114290    0.65580790253838
H         2.15663845044924    4.25522463979665    0.26681210075630
H         3.93978112824650    3.66596345662354   -1.16919098542843
H         4.68496127741279    4.65486879845630    0.08247348796357
H         4.66879914405171    1.60075526157636   -0.01024275275861
H         5.45939011213636    2.56218913227717    1.23495079785659
H         6.95184058155740    3.57439544583733   -0.49570093014035
H         6.17181513302236    2.58983263098425   -1.73216911271242
H         7.10218398096718    1.81870295466905   -0.44621742854453
H         2.12772971000753    4.02303726286578    4.08697302295385
H         1.00299659725584    3.99873985948743    2.69604644466023
H         1.92327303001072    1.57450475925341    2.28858729216333
H         2.60942245303281    1.72787767509041    3.91279042201710
H        -0.34556738008843    1.94035754140152    3.17949170907457
H         0.45891528825960    0.55016131328992    3.90745203843409
H        -0.01504176935364    3.27367329158209    5.18057749222153
H         1.12142203992439    2.09427045669301    5.84955250510718
H        -0.59696590918831    1.70748263032841    5.73057529504961
H         3.74751755363970    3.58737242942657    8.59776713839075
H         3.10045775904251    2.24557079753033   10.55812241028844
H         0.71591945383573    1.92739416835176   11.11123453626315
H        -1.01942810032083    2.96262575290492    9.69538683249208
H        -0.37905827830114    4.32688845024069    7.75481453359206
H         2.75509694514339    6.77334073516631    5.05688991078201
H         4.15428613350459    7.45912651987707    5.99415865252420
H         3.46931923561853    6.20205185014602    8.00520064344160
H         1.36492144725529    4.97956356285998    6.12323421504954

