121
CSD_code = HIPTAC | q = 0 | S = 0 | Stoichiometry = C44H65AgF3NO4P2S | MND = 4
Ag       12.28896168238282    6.22229789914030   14.72072284713049
S        10.12885686198005    5.96323091434345   15.99867664015008
P        14.29270997716358    6.84677850310400   16.22900780792019
P        11.58749257488568    6.07419685741278   12.23097543977013
F         8.91711714887790    4.99551461331547   18.16145018322358
F         7.98224408370026    4.43134804438904   16.30108454254306
F         7.72702131133629    6.42942298960523   17.07329495223800
O        10.94123966859821    4.76807200092006   15.98555193176687
O        10.67276718961307    7.05486052787597   16.77578783241016
O         9.63233640915458    6.36725135028458   14.70459871989255
O        11.62475562705814    8.73890533953626   14.81836494572041
N        14.31695481607228    5.76310599047313   13.40555135950988
C        15.10727193240793    7.03289022841489   17.85657894954866
C        15.15615556428496    5.93589572107215   18.74052204565161
C        16.08962707043192    5.97147414868472   19.76428346680146
C        16.93598050648758    7.05244260190586   19.97121907581230
C        16.73906937867050    8.17663618639125   19.18955316868968
C        15.81888453585342    8.20862696719072   18.14731125825096
C        14.15319122594911    4.78195544687820   18.67360223495072
C        14.32915163591542    3.79139272832884   19.83591806457735
C        12.74586891102593    5.37781355830378   18.81186067677635
C        14.25840347790102    3.96832907024975   17.37317414186505
C        17.99025728003837    6.97703925014258   21.06473688092137
C        18.91396230659013    5.78370338928732   20.78225277099317
C        17.29707990242589    6.78874624361413   22.42141577645253
C        18.85527817468178    8.23825027297972   21.14177301644154
C        15.59812673455384    9.52807231162323   17.40253406704685
C        16.07868480313443   10.72771062598179   18.23810041532635
C        16.38146159967040    9.54285508516811   16.08326772802383
C        14.10372469741492    9.75222499400317   17.13006263720447
C        15.60693189048160    6.22143768677651   15.37033993550652
C        15.52496284667608    5.87902020362731   13.98052324568953
C        16.70819761531587    5.66792566117275   13.25756015981480
C        16.63621778670440    5.35141462034706   11.91507394659637
C        15.39417556804223    5.27392104594423   11.31885437204035
C        14.24305978384541    5.49724125175889   12.09034984180575
C        12.95450608558460    5.43657308068192   11.46783894879262
C        10.35289303106266    5.71628803563619   10.93847542653331
C         9.90652780660119    6.77428824510602   10.11859939871085
C         9.30346784752042    6.45686206044483    8.91376839345662
C         9.11089739813182    5.14502350961086    8.49537084252947
C         9.41953472173806    4.14117777500056    9.39252757164635
C         9.99765021570595    4.39443375854275   10.63413538242228
C        10.01821889564505    8.23759649316007   10.54988263155267
C         9.30489502551177    8.40636581854344   11.89963365667846
C         9.32641855664491    9.19176375380126    9.56319163909007
C        11.48240364919192    8.69386452121102   10.64913100452393
C         8.53230914592166    4.87699468907109    7.11501983691187
C         9.44474575067095    5.51719178548878    6.05929568323973
C         7.12784720034977    5.49088855858097    7.03137016651141
C         8.41965694244950    3.38253334019873    6.80092339542887
C        10.13360172915276    3.19661852789280   11.57623337825063
C         8.79120355892067    2.43937959870513   11.59497267748430
C        11.23975628370753    2.26077203154959   11.06993362631819
C        10.42329578607731    3.56967013510839   13.03165665840631
C         8.60500997234262    5.43008525314048   16.93665806612202
H        16.18101184245401    5.12741692211457   20.42320480225058
H        17.32853361502001    9.05093561297855   19.38829118642993
H        15.27969188353673    3.26527090015211   19.77197735954681
H        14.25182804025835    4.28820074203443   20.80026594008552
H        13.53396977692475    3.05053612355289   19.78671858065234
H        12.63365163680061    5.86351118202557   19.77993217988503
H        12.53531240256140    6.11327980724582   18.03781606456137
H        11.99597196627666    4.59467226285148   18.72650577537658
H        15.29255728107212    3.88744483635664   17.04223189507537
H        13.87223131192714    2.96470252415990   17.54012871985253
H        13.65824280925223    4.40504216590049   16.57104382295474
H        19.68239587790550    5.71457453206075   21.54929184905404
H        19.40015285952987    5.90589241644539   19.81656455473556
H        18.36229728240386    4.84808358668104   20.76937730033210
H        16.60973756160563    7.61082429281341   22.60934126639503
H        18.03584942234177    6.76666810263089   23.21979191848034
H        16.73437345002389    5.86013997099641   22.45433569860375
H        18.25816296308899    9.10914169140709   21.40156591167824
H        19.61230797762982    8.11107449331359   21.91304191014793
H        19.36474247196370    8.42126545861530   20.19842768772338
H        15.64684537295414   10.70624805581024   19.23577445332880
H        17.16245197739688   10.76153769633440   18.31639030139049
H        15.76554013136312   11.64971815964474   17.75315928816784
H        15.99184787208205    8.80371972107484   15.38717020242391
H        16.30173729137637   10.52338727517289   15.61920091101546
H        17.43346959878817    9.33143290102525   16.26480905184365
H        13.51068902161551    9.48409916542156   18.00169546119416
H        13.75006572916278    9.17820114442746   16.27302592883097
H        13.92148589844586   10.79997004090409   16.90060110387428
H        16.58485917395238    6.15772675326009   15.83094609400750
H        17.65928319998809    5.75384666736144   13.75881720773105
H        17.53469830242915    5.17364464472490   11.34220427393455
H        15.29279647189908    5.04499446186454   10.26965897647601
H        12.90982031157817    5.06770483859711   10.45187659622586
H         8.98768495624331    7.24658272413034    8.25656684927133
H         9.21826335944632    3.12035182458727    9.12182033181012
H         9.45925332496580    9.41685726246962   12.27428200282425
H         8.23518621290968    8.24956939827599   11.77296571842712
H         9.65187445555617    7.69329120432000   12.64433880393468
H         8.28229940117334    8.92621101090396    9.41642599007362
H         9.35448110338085   10.20041656729026    9.97062736078446
H         9.83534379146032    9.20879288857885    8.60195628612542
H        11.95771339273069    8.34735506921444   11.56744486462360
H        11.52982382988380    9.78126029067239   10.64749600571500
H        12.05545476767990    8.32377202748221    9.80088730568026
H        10.44655857436411    5.09778247404806    6.12491695326181
H         9.51649914272108    6.59257423277137    6.19482736702290
H         9.05511584409029    5.32583172272540    5.06172680719970
H         7.15705663494131    6.56851414217268    7.16572666487727
H         6.68458023865317    5.28126896518865    6.06018322673240
H         6.48700153918088    5.06835568539554    7.80227197506715
H         8.03618071311809    3.25271565939863    5.79089185512132
H         9.39135851713943    2.89686177974406    6.85577413202197
H         7.73233770367778    2.88855691239468    7.48368363239222
H         7.98775951236865    3.11445042276167   11.88034214940234
H         8.54464403040296    1.99542152068177   10.63524113443050
H         8.83496272206584    1.63292495070738   12.32342918526789
H        12.20481505097541    2.76108494350124   11.10754904964350
H        11.05234468008171    1.94824772572168   10.04506826121792
H        11.28916161058027    1.37244894408999   11.69581084099543
H        11.48084248859810    3.77745712587882   13.20866624817591
H         9.82213507266550    4.42034486388927   13.35103569029104
H        10.16476095220452    2.73816020753699   13.68543886346951
H        10.85417109379370    8.80718440492620   14.24720523753086
H        11.26760036570990    8.47676852210697   15.68206141449669

