57
CSD_code = HIPXEJ | q = 0 | S = 0 | Stoichiometry = C26H26Cl2P2Pd | MND = 4
Pd        2.80303355877720    7.70063455643050    4.56361213732253
P         3.51887937268087    7.30554547877048    6.66484487578646
Cl        1.25945649505538    9.14193247611625    5.44724273319887
C         3.38377898947818    8.57578280929881    7.97506994183351
H         3.77755717155742    8.19979171301414    8.91871127260471
H         2.33691983303454    8.85698174151628    8.07746026220586
H         3.95387527013272    9.45304406395061    7.66714526268812
C         2.54566691855877    5.90166541540029    7.28481588583855
C         2.54914390969535    5.48158483715214    8.61145231976271
H         3.15758878398258    5.99457872065709    9.34295685630907
C         1.76919907537482    4.40637610267177    8.99762295285483
H         1.77565595882894    4.08100344850432   10.02787863687225
C         0.97903301515291    3.74836756580745    8.06886908292112
H         0.37118862840414    2.91046241429401    8.37682512384673
C         0.96418198810043    4.16646999777136    6.74802699301500
H         0.34368643108569    3.65485581813421    6.02693032906340
C         1.74385582155554    5.23954096012611    6.35605945324750
H         1.73901937723716    5.57582845991224    5.30893453737750
C         5.27032039507493    6.83844522351304    6.78817880028918
C         5.75474003951670    5.71800822642238    7.44559621459652
H         5.07246717135470    5.03787623376011    7.93550808540823
C         7.11630318578691    5.46506503310445    7.45108209606987
H         7.49570885347127    4.58923756687184    7.95731629320895
C         7.98912775781150    6.32140109612917    6.80215172390769
H         9.04907491540644    6.11376274224257    6.80531641410301
C         7.50496180876153    7.43454899550739    6.13173436256878
H         8.18524397803328    8.09101625815070    5.60932214919548
C         6.14827599485036    7.68836582234385    6.12034095291596
H         5.74337070090957    8.53546054499744    5.56923007873789
P         2.08664885789118    8.09531713829670    2.46261096810028
C         2.22161822927531    6.82523031123316    1.15222774138416
H         1.82786732559499    7.20146481605767    0.20866740108020
H         3.26846713923213    6.54401690796337    1.04979294618410
H         1.65144831738493    5.94796404358358    1.45999103449716
C         3.05995161860010    9.49914958382816    1.84273023571505
C         3.05661454336946    9.91906425050287    0.51604558451330
H         2.44827106068905    9.40593901040948   -0.21544901116598
C         3.83667943274508   10.99415004415524    0.12978421971496
H         3.83028095173926   11.31939010964135   -0.90051316312045
C         4.62679797442493   11.65223018482277    1.05852595616282
H         5.23465952920720   12.49010648822790    0.75051635485229
C         4.64153875171957   11.23427047802465    2.37941940341526
H         5.26197617234104   11.74597842935909    3.10050250440369
C         3.86175972907149   10.16129819122149    2.77147509520452
H         3.86650074090724    9.82509927794758    3.81863050034862
C         0.33525080441831    8.56265019490832    2.33940045914810
C        -0.14905375194929    9.68329440105580    1.68224411284192
H         0.53327429630084   10.36341330101753    1.19238040112397
C        -1.51059390470090    9.93640481338011    1.67684468558683
H        -1.88989601376744   10.81241395775804    1.17084410572844
C        -2.38351579444548    9.08002712689589    2.32558997582588
H        -3.44343560215738    9.28782200581179    2.32252959317254
C        -1.89946590222276    7.96666057076556    2.99573805418017
H        -2.57981373749431    7.31014719797005    3.51801062506510
C        -0.54280167765795    7.71269646039392    3.00707466335084
H        -0.13798726304710    6.86545921711986    3.55803223976624
Cl        4.34624277286638    6.25920716508420    3.68021748516749

