79
CSD_code = HIPYEK | q = 0 | S = 0 | Stoichiometry = C41H30N4O3W | MND = 7
W       -11.47937779624233    4.79380855849098    5.07779301514925
N       -10.04822735347348    3.52222852758841    6.10960386572738
C        -9.38445216474796    4.52049632397940    6.67439983741053
N       -10.00557631201489    5.66847892719669    6.41212422598200
N        -9.93274755450677    4.59894021473608    3.61783049735512
C       -10.51225661070865    3.58840908106848    2.97439873879295
N       -11.76151398500999    3.41725522398112    3.39031877334936
O       -13.36770744551481    6.47703032394374    6.96025696993285
C       -12.69430808332867    5.77018709194601    6.30966255372559
O       -13.64950393696951    3.47701871093171    6.95132684294507
C       -12.91436217975852    4.02904122636365    6.22343500989045
O       -13.14542785537729    6.90406893614902    3.44704391185837
C       -12.52591369119887    6.09553852092929    3.98580333817200
C        -9.61915811671978    2.22115465296816    5.91346175115027
C       -10.61676365686046    1.26572578349711    5.68347369993246
H       -11.65145239289186    1.58004835705987    5.72659726745811
C       -10.28901095436881   -0.04632184335530    5.41151489861994
H       -11.07375855571983   -0.76895105622606    5.23943102574054
C        -8.95926400381088   -0.43517592008301    5.35108071633213
H        -8.70065120137013   -1.45977348085567    5.13062022623207
C        -7.96512394836701    0.50361813007174    5.56835099301074
H        -6.92615471704802    0.21198127800593    5.51349707674996
C        -8.28104006716869    1.81964465420636    5.84901790242975
H        -7.48977611155289    2.53974309937891    5.99254995101152
C        -8.15023759664428    4.38080964818966    7.47482181048456
C        -8.10900130689953    3.47647247038564    8.53376801953982
H        -8.98674529029820    2.89208536911705    8.76960481424335
C        -6.95283768587486    3.33887030707019    9.27887582609244
H        -6.92669520599836    2.64126516143612   10.10258330375253
C        -5.83137677733373    4.09115326327097    8.96871611595653
H        -4.92834010379836    3.97783270840300    9.54975449809592
C        -5.86894419915579    4.98901521136396    7.91416237598085
H        -4.99590049970657    5.57529328338014    7.66959186196351
C        -7.02416377703021    5.14140928699601    7.17059324747855
H        -7.05865976285052    5.83873804619128    6.34685965454225
C        -9.79329812497754    6.90678009055272    6.99170964347377
C       -10.22221629325899    8.02945160537511    6.27511007962254
H       -10.69453915709409    7.87922575684671    5.31112228950211
C       -10.06301877646667    9.29837002174569    6.79095026945812
H       -10.39752547054717   10.15329779464553    6.22220781783082
C        -9.48415343019538    9.47722803922364    8.03779412261106
H        -9.35936068764365   10.46989026843174    8.44263326082114
C        -9.08898129216748    8.37089122461005    8.76978324505606
H        -8.66328610945710    8.49848590568404    9.75434125361781
C        -9.24325385537442    7.09471378385028    8.26232549821990
H        -8.95976928136206    6.24353134498006    8.86174310543623
C        -8.57434857718520    4.89534304120935    3.60206546975356
C        -8.21262151625918    6.23859948082473    3.75059420368561
H        -8.99525877304520    6.98119380236179    3.82832643632094
C        -6.88377266515095    6.60911773071630    3.79129161930909
H        -6.62290977000110    7.65138454590830    3.90549767304297
C        -5.88833209119420    5.64886299122216    3.69105267662785
H        -4.84877861742371    5.93747143211889    3.72733397279451
C        -6.23731589719718    4.31592264305666    3.55314182999420
H        -5.46819199177544    3.56028438693432    3.48589888355416
C        -7.56457550389117    3.93365901628690    3.50577819336484
H        -7.82002078811390    2.88813761541456    3.41678475715652
C        -9.84492611560235    2.76293923973196    1.94484046955379
C        -9.15065193010634    3.36659326613373    0.89886869938156
H        -9.12194062271951    4.44461114755114    0.82846678063257
C        -8.51430950360724    2.58639739536188   -0.04822101826484
H        -7.98179179271437    3.05843118764766   -0.86034228693962
C        -8.55696274073348    1.20478081559630    0.04523005131704
H        -8.05459312693041    0.59854841127710   -0.69367684972033
C        -9.24369660347564    0.60156196008772    1.08638440203999
H        -9.27629306583542   -0.47483704814125    1.16298011983166
C        -9.89068394130754    1.37369630588214    2.03251780787838
H       -10.42029809083271    0.90910326480905    2.85123598564598
C       -12.73250689089916    2.66839966305818    2.74216618097095
C       -12.75819069856119    2.49521782118302    1.35488995863441
H       -12.00425533159179    2.96212311901436    0.73941257048327
C       -13.76096280721199    1.75102103572790    0.76410890837686
H       -13.76513039560809    1.62707415562244   -0.30899311728574
C       -14.75937164228131    1.17597796637243    1.53189049511975
H       -15.53829544953713    0.59384598111437    1.06351459264229
C       -14.76236826376934    1.37306704782264    2.90368118336026
H       -15.54904630551385    0.94820028653144    3.50929710928994
C       -13.76669358478466    2.11698835975689    3.50332484532476
H       -13.77727152627897    2.28837601807923    4.57001219338720

