71
CSD_code = HIQBUG | q = 0 | S = 0 | Stoichiometry = C32H22Cl2F10N2O2Ti | MND = 6
Ti        5.27329150624066    4.43616423877542    7.30109915801843
Cl        5.82353950031673    2.30128704247512    6.88622157291916
Cl        5.53455870920933    4.98959084872280    5.14302325783061
O         3.56203645997004    4.17293585603302    7.13872564148832
O         6.89357087067496    4.87710028225303    7.75515021813048
N         4.94710418834057    6.63961586475181    7.45369828531317
F         3.20720340961929    5.70395533758208    9.29874368139571
F         5.88040814514313    6.02066047294100    9.94522008635168
N         4.91338752429465    3.57266934693731    9.32849586186619
C         2.91025801786264    2.44469178863403    8.61303244556281
F         3.91002891412647    8.40880124184294    5.49078813895113
F         6.18431664385078    1.34537812958991   10.54560466907652
C         2.81108470989881    3.14141203918722    7.37233924932029
C         5.95911759331553    3.68256560122579   10.21744634705333
F         0.55239816252370    6.30422211473277    9.23161076488870
C         7.71341199659967    5.77062290028088    7.29443402577544
C         2.72757427075460    6.52861806997456    8.34726105975669
C         3.93870285931248    2.74073890647052    9.54114591268029
H         3.88478750821141    2.21028684314520   10.49604343277054
C         3.63418210928630    7.05258688383068    7.41579793383137
C         3.10582408298050    7.90502270147933    6.43161205145307
C         1.88669126445778    2.69525644600882    6.39480485679116
C         1.07236416220271    1.02471341264112    7.94917657268101
H         0.38303879725697    0.22185193972566    8.15834166735798
C         6.48525011764624    4.95093167398864   10.49773757776047
C         1.99686280760258    1.40354651418154    8.88490298552471
H         2.06256000184210    0.89089310941344    9.83290306336765
F         8.05242686564200    6.36498569135366   11.55044289668435
F         1.28053358774774    9.01850252250854    5.43724774105897
C         7.28165795841196    7.11764461676721    7.11054643789338
C         1.92650462077376    3.37031087889049    5.05498377229838
H         1.42866745719158    2.75231436517566    4.30692067326610
H         2.97870836016730    3.49119854788074    4.76914713838829
C         9.04617929901171    5.41560739134287    6.96760820888136
F        -0.41965873978582    7.97964467892593    7.29763912762979
C         5.91871342527720    7.47746592146100    7.25030135180718
H         5.69812948312646    8.54565034090016    7.16989296014945
C         8.22882147295094    8.09031579860092    6.72449274358222
H         7.90254368204658    9.11260166375704    6.60485458532751
F         8.32555526970767    1.68987627197861   12.15347636723496
C         6.61261183884895    2.58485337052553   10.80244536885551
C         1.75035698675465    8.21082746036519    6.38780680333101
C         7.72558133958996    2.75305246154758   11.61842705038627
C         1.04003296533286    1.65402814000031    6.69934431529335
H         0.34002065920331    1.30985049238763    5.95185656751118
F         9.27901509108292    4.19043413964141   12.67239991848358
C         9.40614276336502    3.96055634166988    7.04174149492511
H        10.31482171507825    3.76775963026058    6.47033255422109
H         8.58291799110132    3.38583271579358    6.59970888926708
C         8.21534639600104    4.02900740528330   11.88547095173701
C         1.28151608353487    4.76193376562176    5.09640948739374
H         1.64356545227850    5.28664557433909    5.98468223017275
H         0.19686216878720    4.65923805151004    5.18297796689953
C         0.87892500938549    7.68168831851149    7.33646464061678
C         9.52609563865352    7.73713827544998    6.46734649290232
H        10.24347245762433    8.48276729571436    6.16251807204560
C         7.58863377873051    5.13601564244788   11.31473026963377
C         1.37555797122976    6.82970923860317    8.32204756035183
C         1.63954028864563    5.57310581583125    3.85817873680833
H         1.15052061645279    6.54462672797737    3.87691725199194
H         1.32499703243029    5.05217158616269    2.95696659849191
H         2.71666216336361    5.72413112964159    3.81100226819544
C         9.92134380249401    6.39790461049008    6.56390524619789
H        10.93504109198021    6.12578568843006    6.30780257874640
C         9.59040725528016    3.49111214038626    8.49086242468409
H        10.51935946029167    3.90354129392296    8.89262098498685
H         8.76155963662733    3.87796751060553    9.08987664830347
C         9.60387899842057    1.97094189699158    8.58081956039663
H         9.77114508430055    1.64507425432162    9.60507338293197
H        10.39598101589178    1.55895363277936    7.96012690116646
H         8.65235017141702    1.56940709640311    8.23672226097040

