82
CSD_code = HIQCIU | q = 0 | S = 0 | Stoichiometry = C38H33ClCuN4O4P | MND = 4
Cu        2.02292309624302    9.68284255886698    5.38979896429549
Cl        0.46908122165565    9.18965774443192    3.87246512112508
P         0.60050231515198   11.02914092392509    6.60656117007284
O         1.29936387535638   15.94358123544156   -0.18981937985061
O         2.49324659263322   14.96907341914503    1.30436019808186
O         3.31562612588483    9.76746813326096   11.82169148187356
O         2.34316273143243    9.58600301356367   13.72637628454557
N         1.52354329514934   15.02357449609550    0.57123195624948
N         3.65697283656978   10.64469562147685    4.52598803151615
N         3.40324510315128    8.66691040597955    6.32346784036844
N         2.34706566569178    9.49764034016323   12.51153309099732
C         0.57438799831880   13.95051885543538    0.61875403106692
C        -0.68419371669720   14.17459614981282    0.06784977163834
H        -0.87709599063922   15.12303831157990   -0.41066644830555
C        -1.65776350156238   13.20162980785721    0.15796008245469
H        -2.63400700885636   13.37446505938932   -0.26804035237714
C        -1.37625994166877   12.00952406770214    0.81470572532094
H        -2.13797377832609   11.25045672155387    0.90640026573586
C        -0.12591835521648   11.78029364838043    1.35532028710081
H         0.08279046178926   10.84467666329712    1.85345102824874
C         0.88590661378619   12.74064503559141    1.25731281233686
C         2.20958161349961   12.42641806555597    1.76877295006867
H         3.06720201601539   12.71413057855133    1.17491542123041
C         2.36986366744037   11.77373679228767    2.92965858765674
H         1.50756931186912   11.53490049847229    3.53579288215880
C         3.62022405366077   11.30354704790077    3.43544488899098
H         4.52742644623805   11.49825821639792    2.85405470821627
C         4.87846475494915   10.12101608513570    5.06216018592791
H         5.15925612540179   10.74411044759810    5.92099391404716
H         5.70292035776695   10.13674359716678    4.33507026430170
C         4.62686226475480    8.68894282631702    5.56686106530851
H         4.49991442710368    8.02731091615680    4.70412855550375
H         5.48627822316783    8.35110509272956    6.16208819778614
C         3.43821883336147    8.44825948948569    7.59107177222271
H         4.38754222696430    8.25193990480397    8.09574308158748
C         2.26147227807990    8.49929612950530    8.38317992071903
H         1.34688624420282    8.69184849745115    7.83571867022607
C         2.26536843242246    8.43767577490789    9.73291504672844
H         3.21026017029312    8.30727294735518   10.24030633105062
C         1.08790569863660    8.61916785160680   10.54464922005964
C        -0.18051695579443    8.31361550232513   10.02831723247327
H        -0.25280209087827    7.92692704090913    9.02507407502220
C        -1.32933993085080    8.46983641577000   10.77034963177286
H        -2.28562402786758    8.23673155084908   10.32678364028381
C        -1.26047020560389    8.91809546815252   12.08532885588292
H        -2.15790475421520    9.03653756619272   12.67172338249455
C        -0.03139040061657    9.21287739198688   12.63171897738982
H         0.05707476333135    9.56875983344576   13.64735565537985
C         1.13347138838584    9.08207740972383   11.87680147181583
C         1.24220714217642   11.58089114635678    8.22220376866945
C         0.50401210663637   11.66695067500538    9.39486248152117
H        -0.54864793334980   11.42380931416282    9.39873297254978
C         1.12152692444381   12.06475124901637   10.56827881709795
H         0.53826778152969   12.14350644737505   11.47506527994157
C         2.47443990828652   12.35863588147227   10.58719980457634
H         2.95117137286911   12.66215569966118   11.50638671559232
C         3.22124284350399   12.24827626995998    9.42487757545170
H         4.27957426438691   12.46120417664658    9.44271850386790
C         2.60862701740782   11.85633130912853    8.25160052882343
H         3.17747001779916   11.75057794558868    7.33463127758471
C        -1.07687437399382   10.43354402583835    6.98277224379988
C        -2.07427300766885   11.29433409555990    7.43574598076669
H        -1.86934727867026   12.35253613623157    7.52972084836266
C        -3.32492073160757   10.79433293353085    7.74611766243310
H        -4.09737942005453   11.46176704689039    8.10012569425053
C        -3.59210966274741    9.44190308859407    7.59701427700425
H        -4.57280963107583    9.05795439210598    7.83783379058289
C        -2.61110575175779    8.58823298248702    7.12158870917145
H        -2.82666300708362    7.53906297339566    6.98174870567388
C        -1.35506868447602    9.08214813653655    6.81515429703621
H        -0.59442758723480    8.43121125969043    6.40459396320677
C         0.24565628012212   12.58533368080428    5.73467950848067
C        -0.71021393767371   12.55092388315717    4.71955881293482
H        -1.25633113931600   11.63612502387845    4.53449560323832
C        -0.93926672415049   13.67461583653258    3.94888037877921
H        -1.69233653377916   13.65034413798785    3.17493929317454
C        -0.20040213041599   14.82752052818643    4.16219199664592
H        -0.37563186919364   15.70284223980988    3.55412903556059
C         0.76456072430676   14.85741897956355    5.15506711855438
H         1.34496014006388   15.75361761997362    5.31682542092447
C         0.99058442581867   13.74191128476225    5.94115297638508
H         1.73978788299491   13.77135844872740    6.71992540853258

