67
CSD_code = HIQFAP | q = 0 | S = 0 | Stoichiometry = C22H30CdN4O8S2 | MND = 6
C        -2.71707147646296    1.38799947833381   -1.21221885200279
C        -3.07959086756704    2.43241437474588   -2.21720451357399
C        -1.98145093759511    3.15329466199081   -2.65355507498223
C        -2.09853781266545    4.15322977027088   -3.59078845902545
H        -1.23130147434939    4.70506686485205   -3.91654507393607
C        -3.36525974725600    4.42310338581011   -4.09792693705266
H        -3.48802561601568    5.20238722681929   -4.83494829537566
C        -4.47160273653014    3.70391195031863   -3.66813282279161
H        -5.44528419846598    3.93294893257992   -4.07493279056519
C        -4.34211649536700    2.69665388919255   -2.72338695759373
H        -5.19052326210583    2.12742211887101   -2.37655097250480
C        -1.86816831565914   -2.26292694542428   -1.12084343508595
H        -1.23549308030417   -3.10762608400685   -0.83783692931326
H        -2.87672538760267   -2.62576689407721   -1.35691659732426
C        -1.28732484811375   -1.54432948082493   -2.34931039646918
H        -1.93373521446135   -0.69515974642050   -2.59296168746315
H        -1.29027814257529   -2.23731895177766   -3.20488088933443
C         1.09905408076614   -2.04222209462854   -2.36559085605629
H         1.08930315422401   -2.80878567286711   -1.58393412646253
H         0.88302912013613   -2.53097159487442   -3.33128954620238
C         2.46452346947757   -1.37700260167038   -2.44028450316056
H         3.21704224435739   -2.10165104006814   -2.74320686844271
H         2.74439975243685   -0.96738871648544   -1.47388944784566
H         2.44830900278920   -0.56469170999523   -3.16522645265797
N        -1.43244390783894    1.41797879126044   -0.87023862116073
N         0.06054733881790   -1.05196348952372   -2.06998562016710
H         0.24994659640927   -0.22184762650092   -2.63709930375524
O         0.31522493436702    1.79678176188720   -2.61489958799175
O        -0.02530942669773    3.53297532952762   -0.90070933328371
O        -3.53679178290249    0.57060325966286   -0.78318530878837
O        -1.90891306201687   -1.41449937776124    0.00659059711855
S        -0.58055485409422    2.50894671208267   -1.73642240787429
Cd        0.00005461243951    0.00003336327808   -0.00001225766527
H        -2.62365919230129   -0.74822164252278   -0.16311991512630
C         2.71711345203028   -1.38801242528531    1.21228866626616
C         3.07960845502053   -2.43245861798433    2.21724484860863
C         1.98145085553687   -3.15334498188720    2.65354724685332
C         2.09850800006503   -4.15331030200735    3.59075274127822
H         1.23125334312187   -4.70513010042774    3.91648771468062
C         3.36522012537593   -4.42322718579495    4.09789143431480
H         3.48796385422980   -5.20252533487475    4.83490183895924
C         4.47157915376816   -3.70403515905515    3.66814112308463
H         5.44525472979466   -3.93311064242890    4.07493349169841
C         4.34212140541149   -2.69672788302922    2.72344169034794
H         5.19054468279850   -2.12751452667817    2.37662037194260
C         1.86815800989446    2.26298964080597    1.12082237283784
H         1.23543166515225    3.10762987091147    0.83774741819623
H         2.87667845407187    2.62592317069257    1.35691477996668
C         1.28731073824068    1.54443745928989    2.34931519633246
H         1.93373636140949    0.69529849380459    2.59302403222890
H         1.29021454747722    2.23746726798870    3.20485134474367
C        -1.09907712074685    2.04226766944770    2.36552802060594
H        -1.08935656521383    2.80878927158522    1.58382796875085
H        -0.88305083788010    2.53107481586344    3.33119629319121
C        -2.46452773835428    1.37701790434298    2.44028147497077
H        -3.21706661147325    2.10167773573598    2.74312410324774
H        -2.74438755691691    0.96729695770330    1.47392986731839
H        -2.44829975110608    0.56478144174311    3.16530436680028
N         1.43250400087429   -1.41796692548972    0.87026531872470
N        -0.06054165242253    1.05202415624413    2.06996362473171
H        -0.24994046277265    0.22190460865799    2.63707044638215
O        -0.31522018650700   -1.79681491332006    2.61487841672785
O         0.02536042280970   -3.53297351985185    0.90066852459588
O         3.53684838097034   -0.57056710863361    0.78335158654912
O         1.90901274659675    1.41449898890753   -0.00655711935532
S         0.58058136632273   -2.50894936101573    1.73640358021006
H         2.62374126514502    0.74821133199275    0.16328145812430

