51
CSD_code = HIQFAO | q = 0 | S = 0 | Stoichiometry = C23H19N2O6V | MND = 6
V        -1.03215990715285    0.58127974347366   11.06263811074304
O        -0.18704361771803   -0.77539971793365   10.40735939612680
O        -1.37874436790684    1.88630424571450   12.31792853567498
O        -0.61079378657718    3.55645746000636   13.57327267289969
O        -0.48663559168288   -0.42927595388951   13.03453607281216
O        -2.51268443540561   -0.18050169945838   11.52400791166507
O        -1.46945524910655    1.29119291878088    9.78901981804805
N         0.78647980364821    1.41441065102817   11.27594379548422
N        -2.69699818485695   -0.57383207591709   12.78966442828615
C         0.97615708356994   -1.31775811116123   10.47349876900276
C         1.19382509536260   -2.64755653707580   10.05615603625930
C         2.44451281042547   -3.21142579703637   10.13338208438552
C         3.53275784488986   -2.47960136073280   10.61174489039066
C         3.35523180068761   -1.17599747516923   11.00805166503326
C         2.09123551426928   -0.57105572333379   10.95162233756915
C         1.90828622384779    0.79698148002792   11.31556984166687
C         0.69204464390656    2.77584471219740   11.68976653290624
C        -0.53753897399299    2.78022272337371   12.64979680656852
C         0.35636085148121    3.69237122281700   10.51043217879562
C        -1.58458183867465   -0.70006574646175   13.53538590487055
C        -1.69742369440765   -1.22466538386517   14.91745659906782
C        -2.44116277802793   -2.36481892237895   15.20998771072551
C        -2.48337185589338   -2.84154264916005   16.50707324956133
C        -1.79121533711373   -2.18791681216705   17.51451409451733
C        -1.03788801674091   -1.06309819884944   17.22214087387554
C        -0.98030318988124   -0.58657465303169   15.92493062286668
C        -4.04285586639367   -0.69162612714851   13.20535556895380
C        -4.47083919893944   -0.18544065445221   14.42753386656746
C        -5.80121456100302   -0.31309032245454   14.78347224653263
C        -6.70411997272890   -0.91772202724380   13.92379393201757
C        -6.27922573072772   -1.38555061964911   12.69127484629676
C        -4.95042147532913   -1.27268195052153   12.32630747233036
H         0.34642690128849   -3.20660606487292    9.68653999179899
H         2.58801655644317   -4.23482139783892    9.81934759311251
H         4.50790682540265   -2.93788419104037   10.66494169023855
H         4.19223685272499   -0.59893667100592   11.37498420275460
H         2.80907571365851    1.34473498194186   11.61589376269261
H         1.59158785186077    3.12892673997178   12.21645642436349
H         1.19612077965148    3.73657063490741    9.81780378705621
H         0.13823999427401    4.69243926144522   10.87792086185787
H        -0.51763711187924    3.29383321569702    9.98800627343049
H        -2.97372506505169   -2.88099694231754   14.42489328715656
H        -3.05868625098065   -3.72672565514188   16.73289779979622
H        -1.83497516480641   -2.56022586603568   18.52703504575728
H        -0.49243299495888   -0.55705245039939   18.00419573307652
H        -0.39883051792973    0.29039739103729   15.68139726134662
H        -3.77570820588098    0.31494570798440   15.08335558942457
H        -6.13612974518963    0.07724397143038   15.73241577604131
H        -7.74130545562988   -1.00886070616220   14.20821118969934
H        -6.98385684924674   -1.83849798350676   12.01055926870188
H        -4.60283815558876   -1.61775061442504   11.36292558918714

