32
CSD_code = HIQKUO | q = 1 | S = 0 | Stoichiometry = C7H18ClN4ORu(1+) | MND = 6
Ru        2.43489243582578    5.84746064735442    1.40147134494683
Cl        1.20120359723902    5.95603939981750   -0.61662622515895
O         3.79371411987985    3.41416744145151    0.31858262885649
N         1.48281222632683    7.52900112585006    2.17963494644346
N         3.68597526187239    7.28619661462542    0.43239098214241
H         4.70099599679965    7.20256282475475    0.35139897994027
H         3.29991132044206    7.18012121421746   -0.51724518888205
N         3.49918425614424    5.97804435431156    3.29128797842584
H         3.79063202711069    5.07523176959763    3.66539550014948
H         4.35137657917926    6.52969446969798    3.17319228372936
N         0.67413609430898    4.84802263866989    2.14545529236998
H         0.28290315434809    4.59831906277318    1.22699007811377
H         0.69510855330301    3.99180180052092    2.70076979780449
C         3.28777843571070    4.34129060032020    0.74470615390834
C         1.81625479312220    8.62553946517693    1.25378384671017
H         1.51489058938041    9.59986279123794    1.65718616913889
H         1.27362564599486    8.44951993561602    0.32030772910955
C         3.31507081586232    8.61907263515797    0.93502365920030
H         3.52269940583791    9.39896768409798    0.19306465571402
H         3.91469214898355    8.84083742433321    1.82449686182461
C         1.93277428827457    7.84521088027030    3.55239491382264
H         1.09196328599731    8.19137424747345    4.16296683916208
H         2.65774737542523    8.66102045564030    3.51083186799310
C         2.60071314393698    6.64567324382360    4.23965588964014
H         3.13591412464726    6.99996599564110    5.12956209432916
H         1.86016588171487    5.91438858363446    4.56898263110889
C         0.04576647533808    7.21306182589466    2.13903766783669
H        -0.25464894815493    7.17020756336413    1.08788726234037
H        -0.54900988675917    7.98281332403716    2.64642818522613
C        -0.22488049215467    5.84144485305516    2.76276263773504
H        -0.06241989541230    5.86379920510040    3.84317542146814
H        -1.27584281052502    5.58008592248262    2.59454711485005

