41
CSD_code = HIQLUR | q = 0 | S = 0 | Stoichiometry = C14H22N2NiSSe | MND = 4
Se        4.20499106035539    6.11423350543987    1.36985329885149
Ni        3.69404194198138    5.05089789530402    3.30032211080918
S         5.59450439477203    4.11032953162117    3.17344270433847
N         3.23604181804251    4.08769065067712    5.09285298855766
N         1.65611111968415    5.54464550623749    3.58708923258425
C         5.65389917394185    3.69326036343621    4.96003619377294
H         6.44175533166927    2.94747311024405    5.07143759930757
H         5.93376123234863    4.58149991990473    5.52836458388432
C         4.30983820499359    3.12984715161669    5.39217555177119
H         4.31554749720107    2.86486772418705    6.46237733591595
H         4.13390550670225    2.21998204423370    4.81176693527671
C         1.93568623515019    3.43866926446676    4.90817377280670
H         1.46527719920350    3.22671099749156    5.87930986027725
H         2.10383610390532    2.48070976533564    4.41118978014748
C         1.00805495280570    4.29733475834273    4.01223070133338
H         0.77445356291254    3.72864016283198    3.10892463290352
H         0.05662481361254    4.51426793033189    4.52081096571172
C         3.15559896028600    5.10670703615879    6.14765450329614
H         4.05116172340668    5.73311186324773    6.09577300693674
H         3.15118670293010    4.61561017847291    7.13623953977842
C         1.90859526937255    5.98565578098219    6.05415261568241
H         1.04056816094895    5.42317639490968    6.40285810811046
H         2.03607686984722    6.82583506377528    6.74006546632087
C         1.62364000805832    6.55142967953730    4.66304667529159
H         0.62721950806921    7.02226949249955    4.69559855691106
H         2.35350387546229    7.32980354181010    4.41396459840418
C         0.95886602899628    6.08826371520892    2.42366130863040
H         1.41021214372190    7.03881635237308    2.14239445822275
H        -0.10730837274950    6.24573249794858    2.63700180861973
H         1.06173681061396    5.40816184435665    1.57876226906817
C         5.27614125151950    7.48970334552039    2.13274354792871
C         5.94460416211667    8.42472165355068    1.34918025091432
H         5.86522546597269    8.36564730660823    0.27388074211144
C         6.70603879885565    9.40822562312417    1.95163959876586
H         7.22944840241269   10.12867061207685    1.33973044586659
C         6.81410392410061    9.47088391235883    3.33216240752585
H         7.41633695924829   10.23803315800329    3.79613250954601
C         6.14946519318096    8.54129604228913    4.11650098996016
H         6.23313712555337    8.58274259950677    5.19421058211144
C         5.38059041101431    7.56465002998425    3.51823950825081
H         4.85132046776260    6.81289199398734    4.11984825349145

