51
CSD_code = HIQNEB | q = 0 | S = 0 | Stoichiometry = C20H22Cl2N6Ni | MND = 6
Ni       12.84143379057583    2.47634679073836    9.44440579698182
Cl       14.33826379211748    1.02405166715524    9.29099418884386
N        11.56605751755593    3.78485075414522   10.27961995637498
N        13.02996372823597    2.83467674257962   11.69598622844816
N        14.54670320931076    1.67794315617601   12.91462952642211
H        14.84451887667961    1.33394005455034   12.00823159022318
H        14.76533483393171    1.12596509708480   13.72541542696028
C        11.90524171171495    3.55007821164006   11.56571309315742
C        13.41916781783123    2.41830166270963   12.88587136239263
C        12.70416097514315    2.79264117051217   14.05884413412721
H        13.05648596863642    2.45504304472135   15.02169736307021
C        11.58862796684276    3.56789092181247   13.94523575950387
H        11.03777161760062    3.85976275538309   14.82706874067382
C        11.12731740028537    3.97115496012037   12.66768229474675
C         9.95276050542597    4.70678684113708   12.38597948596833
C         9.64384901485207    4.92854483045328   11.06367124062350
H         8.74866877799768    5.47319237760160   10.80163808480786
C        10.45508090083991    4.43665116809354   10.02384086300939
C         9.07118438094738    5.20059563905436   13.48766417078149
H         9.63637221508544    5.82431813409375   14.17898513128728
H         8.66335972630401    4.36008520152924   14.04792860249697
H         8.24550889396693    5.78224198721503   13.08636777445764
C        10.06793327961874    4.63063027210799    8.59692495461809
H        10.78378475771314    4.11194611119181    7.96295097423986
H        10.05309713697389    5.69068216202165    8.34675052665583
H         9.07392189722476    4.22326308778655    8.42251879222926
Cl       11.27673279885873    1.03373538115897    9.38118722275114
N        14.16757432786720    3.87630207571936    8.60924255555354
N        12.72772994882766    2.91976759374098    7.17500187697757
N        11.24984602258754    1.71782103390099    5.95535720955911
H        10.94062884961560    1.39359214733984    6.86868331626522
H        11.06347378950248    1.13104060082653    5.16069942256194
C        13.86030962750839    3.61728119513704    7.31976193497001
C        12.37739038676061    2.45726000670318    5.98964940244492
C        13.13603291912246    2.78268478150266    4.82865186192711
H        12.81392439684207    2.41297328281047    3.86689974852068
C        14.25470574440965    3.55132338464179    4.95257521315210
H        14.83799023869582    3.80687176947527    4.08040072917438
C        14.68072563707728    3.99051733573493    6.23099684332169
C        15.86213459308311    4.70737588419003    6.52838230607632
C        16.13766284092910    4.95896427363594    7.85315139086085
H        17.03731684384106    5.49040092941150    8.12712154292365
C        15.28489858301054    4.51056951104429    8.87881595843958
C        16.78955555240332    5.14826448426644    5.44197528781102
H        16.26036771218286    5.75857374353469    4.71152204242699
H        17.19928661472490    4.28185998049204    4.92435777232667
H        17.61267072407156    5.72755577462004    5.85210874603812
C        15.63195038315621    4.73564140169924   10.31274041139921
H        14.94728979712501    4.16485606713082   10.93580631395145
H        15.55020510960126    5.79387304747096   10.55946000897200
H        16.65312586476233    4.41620951221382   10.50933481850317

