43
CSD_code = HIQPIH | q = 0 | S = 0 | Stoichiometry = C20H16Cl2N4Ru | MND = 6
Ru       -0.00004964841439    0.00005677365360   -0.00002715905187
Cl       -1.20410010778206    1.91709148178957   -0.70916672171034
N        -1.24656309658009   -1.23036919892882   -0.94056981094278
N         0.90196842507180   -0.18325190074166   -1.76219690555138
C        -2.51336464894154   -1.51575997755134   -0.65328082889922
H        -3.02009613769756   -0.82666172170094    0.01079293221297
C        -3.17345993287723   -2.61156361507031   -1.17702057533174
H        -4.19924348318008   -2.80377626087806   -0.90593345169307
C        -2.48754142834514   -3.45881884752191   -2.03810101717700
H        -2.95704500573364   -4.34731129379009   -2.43060512267450
C        -1.20007226866087   -3.11900504176059   -2.41184744619748
H        -0.65510807670359   -3.73114785871340   -3.11165779703780
C        -0.61055850585229   -1.97890123326008   -1.87233968603760
C         0.62933840809359   -1.37252186705991   -2.34897480792929
C         1.39141785810881   -1.84738965780019   -3.41304263316516
H         1.19049458245703   -2.81990637598477   -3.83169355569797
C         2.40788505324685   -1.06102635453994   -3.92403681570853
H         3.02119117385849   -1.41620097326617   -4.73744636014995
C         2.59568401125299    0.20824792983011   -3.39163136865120
H         3.33606667559650    0.87886980822119   -3.79754669151176
C         1.82411811421350    0.60042483220388   -2.31381871374912
H         1.93394708082164    1.58718001638663   -1.88148339735125
Cl        1.20401827218245   -1.91699769345982    0.70910040296118
N         1.24658130204925    1.23031548368021    0.94059020775061
N        -0.90195517634631    0.18323282603224    1.76223262857924
C         2.51338598360236    1.51569305526888    0.65329429980425
H         3.02010790566703    0.82658610473998   -0.01077727082107
C         3.17349494197672    2.61149206460300    1.17702828171718
H         4.19928223657487    2.80368800453524    0.90594371558292
C         2.48759036192541    3.45876129001922    2.03810700612638
H         2.95710726709939    4.34724665168411    2.43061149937678
C         1.20011378130252    3.11897163044241    2.41184920200364
H         0.65515918783824    3.73112130224069    3.11166131757236
C         0.61058542252116    1.97886948808122    1.87234918457846
C        -0.62932479931027    1.37251648159766    2.34898412022788
C        -1.39142155554306    1.84742764605198    3.41302616578882
H        -1.19048020054055    2.81994687664194    3.83166447252779
C        -2.40791676453840    1.06109672949943    3.92401579472360
H        -3.02123235022928    1.41630344320305    4.73740514445081
C        -2.59573179808034   -0.20818341687982    3.39162884522421
H        -3.33614337309696   -0.87877680490669    3.79753854703244
C        -1.82414306634105   -0.60040511815152    2.31384576406214
H        -1.93398662066590   -1.58716470844011    1.88152860473646

