75
CSD_code = HIQRIJ | q = 0 | S = 0 | Stoichiometry = C24H42Cl2HfN4Si2 | MND = 6
Hf        2.74636458691880    7.55875997742109   13.01782277634865
Cl        3.62255511456952    5.87800378962932   14.46293754636672
Si        4.36940963874419    8.20537381978946   10.57459529132686
N         3.23141320720010    9.00995706618402   11.55299577092179
N         4.82185328215139    7.04487175408974   11.90025335253920
C         2.61995687252624   10.23098693296348   11.22122513016927
C         3.25849439096596   11.45218612339801   11.48614203234437
C         2.63220202596791   12.64098777512226   11.14369983608580
H         3.13567709941488   13.57414407559619   11.35313021703919
C         1.38623826141843   12.64961444602686   10.54543439749304
H         0.91077656596536   13.58363806663512   10.28477931220193
C         0.75674971570869   11.44775241552077   10.28096104233557
H        -0.21404044708892   11.43931151854226    9.80528754874331
C         1.35937816045112   10.24169833679620   10.60479834988439
C         4.61722509560287   11.49832030607154   12.11501606039155
H         5.38590522457781   11.55178154388654   11.34563064633875
H         4.78557239988865   10.60937159277336   12.71793372671173
H         4.70987227102757   12.37381590910705   12.75274891571485
C         0.67817687970989    8.95298878863785   10.25160712516047
H        -0.40377812565783    9.05486731007283   10.31501809803802
H         1.01431558181075    8.14558857384625   10.90520708321674
H         0.92788175485909    8.67198811707482    9.22819306647877
C         5.92641359480160    9.13142837961139    9.95879979216090
H         6.57002671667838    8.46896570115065    9.38791269688583
H         6.51933527190455    9.56290203261139   10.75675329580431
H         5.62683234854354    9.93719038599174    9.29831359915291
C         3.74455284008035    7.27376274608612    9.02139339974633
H         4.52566157068005    6.66866130223076    8.57126052677239
H         3.42604025960778    7.99471236889273    8.27418671319469
H         2.90068206976911    6.62538939343443    9.23403320223144
C         5.91851125490751    7.52576892840660   12.73877571402910
H         6.87251201626247    7.49669122735941   12.19687501784668
H         6.02074784401869    6.89218269624898   13.62585462488284
H         5.72630497378114    8.55586160637966   13.04669468981656
C         5.12064199068561    5.67944590487870   11.48192252705068
H         6.06359788623734    5.63199836631180   10.92401906630908
H         4.32370159391612    5.30077103015707   10.84764588446004
H         5.20810929277368    5.02722768229103   12.35515815752817
Cl        1.87071914290805    5.87724489368277   11.57328809499657
Si        1.12378079088796    8.20526922916620   15.46148220872923
N         2.26161133769157    9.00982434758197   14.48286739802569
N         0.67081961732603    7.04496537098670   14.13582018677125
C         2.87295840863426   10.23090354797237   14.81460870165997
C         2.23431316871464   11.45205762380226   14.54968758252330
C         2.86049206825256   12.64090787835670   14.89216223888355
H         2.35697936206839   13.57403067659547   14.68266217880343
C         4.10641500081576   12.64961775852180   15.49052135136213
H         4.58178930791492   13.58367541769740   15.75121485192087
C         4.73596453917729   11.44779896052074   15.75505300195798
H         5.70670492018383   11.43942820998593   16.23082818658201
C         4.13345848746736   10.24169084439741   15.43116743561721
C         0.87561431548793   11.49810121397693   13.92073828686597
H         0.10687089736865   11.55129206253440   14.69008415554754
H         0.70747160638089   10.60922723062837   13.31764632388373
H         0.78287568642896   12.37369825501905   13.28314900883039
C         4.81468199024977    8.95301932652031   15.78449734881323
H         5.89663040001461    9.05487731104249   15.72078146372676
H         4.47833471772697    8.14543852494380   15.13119583812604
H         4.56524345905964    8.67230137492711   16.80805826780259
C        -0.43302958599262    9.13152454398932   16.07755963692596
H        -1.07623952362744    8.47035649494532   16.64971596704493
H        -1.02690822269667    9.56253188020553   15.28039133863446
H        -0.13333730116644    9.93766432966957   16.73687596748566
C         1.74852287191618    7.27324685247078   17.01446958195597
H         0.96764122808759    6.66782327553012   17.46458719246246
H         2.06693212782218    7.99394055560282   17.76171546585567
H         2.59253238300332    6.62521307462517   16.80179585238522
C        -0.42589422626203    7.52601518907457   13.29743706263527
H        -1.37986688730979    7.49684028341254   13.83939191392969
H        -0.52820843678491    6.89259132244127   12.41025042273595
H        -0.23371113948483    8.55614335385881   12.98963688383634
C         0.37193394636827    5.67950968238300   14.55401127754668
H        -0.57095257708293    5.63209910281782   15.11203898777777
H         1.16892942861299    5.30063375698222   15.18809719994721
H         0.28425560844939    5.02742825190200   13.68069490369692

