51
CSD_code = HIQSIK | q = 0 | S = 0 | Stoichiometry = C22H18N4O6Zn | MND = 4
Zn        8.07800427086868    3.53415305391590    2.89668944833514
O        10.05584604945112    2.91910999409965    2.92104040592558
O         8.44604484438416    1.62738271527757    2.20051545735481
O        14.59465062353039   -2.37299243989377    1.88719276317494
O         6.02157586689034    3.55794292626534    3.12295414571564
O         7.35515155309452    2.84375205671247    4.70114406275490
O         0.51848693022245    1.82219406386602    7.17362470955845
N         8.02438269063181    4.17889239558852    0.94378475030387
N         7.30452719899935    4.01909388777778   -1.11098341927287
H         6.69147146278650    3.85291893205686   -1.89290250345552
N         8.47911415279197    5.33503730987726    3.80554587288543
N         9.36840200605281    6.52217506895452    5.40714915411843
H        10.01052703460969    6.82387692876257    6.12225772587812
C         6.20762650708137    3.03754501894691    4.24688662317035
C         5.02251008255602    2.65761294419288    5.07863112435551
C         5.20921805299173    1.96910070612843    6.27410627488513
H         6.21670078135395    1.72353641056645    6.57347944575288
C         4.12048313507652    1.61264353802182    7.04272161218758
H         4.25828295512075    1.07502582380872    7.97048020922143
C         2.83015904249440    1.94473132856389    6.62564116952430
C         2.64868587259626    2.63671066290674    5.42543815040094
H         1.64177674878354    2.88227793289478    5.12119552495018
C         3.73775630392396    2.98874751367907    4.65677709887713
H         3.62127166312956    3.52023586985967    3.72462166708823
C         1.66765759254740    1.57171048939906    7.43745933570914
H         1.92994046616807    1.01488615110923    8.36054172689300
C         9.64632548259962    1.81654668069818    2.49085254833720
C        10.62616757810856    0.70145591402589    2.29849495171816
C        10.17250026102285   -0.56299962319167    1.93349976292068
H         9.11182233507938   -0.70846229878926    1.79655531576626
C        11.07119079472474   -1.59527821621417    1.76032730034801
H        10.72532339370454   -2.58046710307189    1.48013749837259
C        12.43689076378634   -1.37339134156865    1.94689018574438
C        12.88672942851051   -0.10197507820008    2.31217532045634
H        13.94727922769563    0.04699487479125    2.45272610239124
C        11.98673620113532    0.92740543021060    2.48835468883167
H        12.31095426898517    1.91647195167893    2.77394322253348
C        13.39914444768483   -2.46417303623998    1.76301694786095
H        12.92903224272803   -3.43024314756091    1.48631991583353
C         9.05465211052614    4.46428009197117    0.10475192865435
H        10.02465418365870    4.70828902533519    0.48590609483072
C         8.62279244762805    4.36962220266266   -1.18387656073199
H         9.12762453225280    4.51690024071850   -2.11589976870926
C         6.98867076503468    3.91022605549522    0.19040354880478
H         6.02487035250428    3.64358135074272    0.57270552182579
C         7.64529045677979    6.37104240863105    4.08537963448003
H         6.72276869762480    6.49456713236329    3.55687056736609
C         8.18560979691564    7.12419622349584    5.08380583162135
H         7.83770943033480    8.00875651792758    5.57541003507919
C         9.50147748254882    5.44535537087882    4.61487737202228
H        10.32682943030509    4.76359708984648    4.63077949733459

