55
CSD_code = HIQTEH | q = 0 | S = 0 | Stoichiometry = C20H26CdN2O6 | MND = 6
Cd       12.68173252665645    4.85633277179435    3.58064501329116
C         9.84047038667285    5.05209558948030    4.53850477088513
H         9.69493245520759    6.12906839686297    4.42588077479262
H         9.02111473679176    4.66985258229101    5.15962128404196
C         9.78611987615948    4.38768636367452    3.16019781669893
H         9.95866561768994    3.31304385821442    3.27322501633295
H         8.78749066914399    4.52857027490509    2.72473827227763
C        11.18267875828566    3.58385573973838    5.97698945947673
H        12.20100311327717    3.48349158896483    6.36802344893333
H        11.00081621675379    2.75192483101118    5.28891686358471
C        10.18827595787675    3.53174864664251    7.10957829984127
C         8.95770646343679    2.90563506416301    6.93980274119467
H         8.73202085064126    2.41199980370360    6.00432568879780
C         8.02672309052721    2.88620646547738    7.96393704160635
H         7.07628757092890    2.39519128497056    7.81612476705659
C         8.31524085811730    3.49114164868344    9.17488128596385
H         7.58955182556693    3.47765544895609    9.97410160970713
C         9.54371343314900    4.10202798021895    9.36092404839869
H         9.78019970329991    4.56322423788920   10.30821141525269
C        10.47368786278930    4.11997696385690    8.33668032816566
H        11.43481586979637    4.58525695727511    8.49800768596505
C        11.52499188310574    6.02120438239285    5.95247357318015
H        12.40922246844885    5.79191167483014    6.55358165316783
H        10.71942415637307    6.37821308777400    6.60602732727432
C        11.91339080789012    7.15903440947455    4.94424989205385
C        10.49937032101418    6.24580563418399    1.72179088282194
H        11.33034772847421    6.54512789795301    1.07439908315823
H        10.46159296405362    6.95432340614284    2.55353758653408
C         9.20391678679155    6.30044959475900    0.95130775322103
C         8.02715050229284    6.68888389428417    1.58323438450968
H         8.05296395653107    6.99476547163788    2.61963121116269
C         6.82773173356291    6.70945645273671    0.89330808569984
H         5.92346627358295    7.01507938975854    1.39837850488609
C         6.78812422485716    6.34281072492972   -0.44096057906849
H         5.85270790354598    6.35667270991206   -0.97987521908121
C         7.95577583092319    5.97041226163564   -1.08444008199192
H         7.93448785632882    5.69618938289144   -2.12867985296011
C         9.15466783460251    5.95182776700923   -0.39364238974603
H        10.06078444549335    5.67390838759507   -0.91193204240502
C        11.09771709183896    3.93022007917052    1.21240526498135
H        11.71178029349455    4.39527359835467    0.43330880321955
H        10.18099626488106    3.54528794250206    0.74826228716027
C        11.92990060842288    2.71526481201570    1.74700126575838
N        11.14004812139659    4.83337927102431    5.18721270402714
N        10.82725644849602    4.90799795372051    2.26423741393157
O        12.81352477335187    6.84136854298275    4.09743708469475
O        11.34716928850968    8.23032227892147    5.02756152246533
O        12.75935212467849    2.97667467464982    2.68320602366145
O        11.77126700736282    1.63631064990546    1.21643451799702
O        14.51258775903279    4.76508570478880    5.07640798618053
H        15.22232899855616    4.48168462057785    4.48385188316355
H        14.53583770389653    5.73479428853794    5.05609737207010
O        14.90819164898230    4.57283448970338    2.26628779758826
H        15.07459521431772    4.86160380587347    1.36377742766544
H        14.51348113216683    3.68323425835965    2.20710324083209

