92
CSD_code = HIQVUB | q = 1 | S = 0 | Stoichiometry = C42H46AsN2Pd(1+) | MND = 5
Pd       11.83125483467475    5.60808457533525    4.46677537779817
As       11.16115196785887    3.34421299847431    4.02852695649589
N        13.15259014627842    5.96203776661948    7.13670286838635
N        14.39866979908816    4.82398867818498    5.77703972579802
C        13.22205635151242    5.41854387009416    5.92910640488508
C        14.34731225760700    5.70642463574853    7.94041996399964
H        14.76489206798305    6.64160401769965    8.31748112892206
H        14.09347402850489    5.07405936350044    8.79714422039093
C        15.27128611699696    5.00387675406998    6.93828364361813
H        15.64481178328075    4.04670215736623    7.30253454051789
H        16.13023790242008    5.62241295602475    6.65890388290135
C        11.96573876843534    6.53770515015684    7.66908232816175
C        11.88241993852042    7.91849763523007    7.86012157422928
C        10.69868405639602    8.44818112223420    8.35211293097399
H        10.62406772398321    9.51567587075958    8.49871458512271
C         9.61034961937961    7.64205584030054    8.65846275753627
C         9.72852807190549    6.27015969799203    8.48268753019509
H         8.89809059519877    5.62821676981704    8.73838351942969
C        10.89629923746654    5.69806440897656    7.99907775365462
C        13.04211378725336    8.81978293000790    7.56097998429468
H        12.69057117609108    9.79243805342714    7.22585381715125
H        13.68909143708099    8.39600641493401    6.79614828693127
H        13.63235988062515    8.97714610438384    8.46426152623465
C        11.02259267858837    4.20478614054130    7.89339715806487
H        11.38276879718732    3.90040969309882    6.90215155142578
H        10.06064981661010    3.73314257596257    8.07787155295876
H        11.72931306524604    3.83502379930303    8.63691276489366
C         8.35082966827530    8.24593765696521    9.19309087270712
H         7.53206625766722    7.53176228259743    9.17209221203763
H         8.06963212209773    9.12544075385328    8.61752587656896
H         8.50092129839320    8.56165258919216   10.22510857107680
C        14.76214429151235    4.05982677107077    4.63368932758318
C        15.08271882976107    4.71420705452997    3.43908549658022
C        15.42118281053275    3.95229853455412    2.33257164142019
H        15.66769168448575    4.44853216025131    1.40531333427569
C        15.45826025355565    2.56502519263974    2.38897142342868
C        15.16093018514907    1.94181084679955    3.59135400723281
H        15.20987387263268    0.86512113928661    3.66003003881629
C        14.80260590629975    2.66593389677278    4.72082019360028
C        15.07598149140690    6.21396145749774    3.36466935128536
H        15.37342482721768    6.54783081608773    2.37426598499410
H        15.76831174156669    6.63669541882720    4.09216811524379
H        14.07480090776350    6.60675671269623    3.58640563372951
C        14.49304075001023    1.95263232758194    6.00307161011369
H        15.37811262164821    1.90907919817556    6.63850615143676
H        14.18289115673472    0.93073959826227    5.80270511337377
H        13.69390621470228    2.45585670502620    6.54822949447492
C        15.79027726808198    1.77031291130493    1.16621933043195
H        16.62259753310892    2.21849210819079    0.62860868986966
H        14.93130945621375    1.75236382079009    0.49414225763575
H        16.04659182825456    0.74605344836135    1.42205188411224
C        11.68824609753718    7.71734109269004    4.47970422356698
H        10.87044988363023    7.86715440444228    5.18976044405120
H        12.51263127458275    8.41248012808415    4.59805143265940
C        11.37254371946972    7.26231635263068    3.18593285115427
H        12.05565367048860    7.46101634755725    2.35786632659236
C        10.34664404953735    6.33295476437882    3.03296532709309
H        10.14205769421176    5.93234498429341    2.04371834706170
H         9.46437590341127    6.42792930819209    3.66603697936939
C         9.26869175083175    3.43475732932544    4.50024230937973
C         8.87909991021702    4.49273804446354    5.31835043538524
H         9.62754268476389    5.22275874770021    5.65712577785473
C         7.56012042474376    4.62608250229922    5.71554374782085
H         7.26753868255844    5.45301409832322    6.34650025996945
C         6.61866612563036    3.69886408410451    5.30030896563552
H         5.58787549132813    3.80282350914388    5.60276781921525
C         7.00170546858173    2.63221095036123    4.50303093588326
H         6.26910198011580    1.90420179657987    4.18826532238410
C         8.32201167864876    2.49477004280512    4.11036332582244
H         8.62046519996092    1.64768837944118    3.50349232603493
C        11.49216057589757    1.49565401494635    4.57028937336457
C        10.95917741690031    1.01629283883528    5.76367995210869
H        10.37491407097575    1.67860421795784    6.39434794176397
C        11.15468107912191   -0.30146230082949    6.13807990847572
H        10.73403060498671   -0.66578528637384    7.06333828459401
C        11.88229123739350   -1.15400262361585    5.32371419857062
H        12.03087105680345   -2.18273813614094    5.61392753931507
C        12.41189179206071   -0.68479312476463    4.13291107831935
H        12.97202922668110   -1.34942055376000    3.49174691057364
C        12.22178120861831    0.63453804909008    3.75842947936820
H        12.64208706773452    1.00264107767395    2.82945983786992
C        11.34015115261110    3.17495709610802    2.10168887035515
C        10.70812107140773    2.21500097340962    1.32065281467134
H        10.04146018800656    1.49505061771133    1.78070548567394
C        10.93546549379001    2.17095134333449   -0.04404631440284
H        10.43503898747544    1.42904083553617   -0.64829338299781
C        11.80600509219205    3.07254277087722   -0.63567458526934
H        11.98281376907990    3.03181359118763   -1.69972652773630
C        12.45090961194444    4.02336026044671    0.13810028327313
H        13.13338115847908    4.72304765547183   -0.32185863032668
C        12.21506730903798    4.07378488688588    1.50023371183130
H        12.71767025541309    4.82251154758174    2.12153166667384

