37
CSD_code = HIQWUA | q = 0 | S = 0 | Stoichiometry = C12H14CdCl2N6O2 | MND = 6
C         2.16754693163254   -0.18511136901931    6.87657896611862
C         3.37025094593127    0.44443098669298    6.57450708736729
H         3.56581514670053    0.74603968437506    5.55785327857456
C         4.26959031371173    0.67089289644598    7.60408216222998
H         5.21160472421207    1.16283619042989    7.41209354573967
C         3.93495135777696    0.25793123711226    8.88390272243938
H         4.60446985786808    0.41655373410580    9.71460625500818
C         2.70786820210192   -0.36384484554209    9.07830554350319
H         2.40008563122850   -0.70179220009912   10.05910659667438
C         1.15964723932745   -0.41832129026430    5.80118295514612
N         1.84326858127935   -0.58023612818774    8.10628149158093
N         0.01595885840194   -0.95246144426022    6.25150760922170
H        -0.07911177179924   -0.99864255314947    7.26570296867822
N        -1.10306299905966   -1.08474966870029    5.42174164008072
H        -1.79644226646196   -0.36769554396875    5.66072809586010
H        -1.50666819713171   -2.01437577529737    5.51207704110282
O         1.39627625147921   -0.17004939233026    4.62142267733439
Cl        0.22455244470264    1.93654819190029    1.69130858937869
Cd       -0.51215394960965    0.66605949473681    3.54584153703594
C        -3.19233185551169   -0.18527470159147    0.21554572426208
C        -4.39494121808732    0.44450796322437    0.51748883285561
H        -4.59047738079557    0.74626373275886    1.53410904699997
C        -5.29414166882662    0.67110568532345   -0.51218539701702
H        -6.23611672160768    1.16314728028528   -0.32027706702355
C        -4.95948380123344    0.25796723407013   -1.79193634263421
H        -5.62892084369359    0.41661611550905   -2.62270132803530
C        -3.73252471000580   -0.36411561884950   -1.98619212536609
H        -3.42472981290911   -0.70214798018630   -2.96695680166347
C        -2.18442587540451   -0.41831837784023    1.29094752338906
N        -2.86803303045123   -0.58059038934461   -1.01409658135438
N        -1.04078625915850   -0.95264111885562    0.84075033660295
H        -0.94589647910192   -0.99921836706788   -0.17344576923605
N         0.07833078723823   -1.08457645046497    1.67042402643430
H         0.77169124838292   -0.36764252034119    1.43086820905113
H         0.48194790371672   -2.01425339538527    1.58056396744890
O        -2.42097820573445   -0.16967048201128    2.47065075151518
Cl       -1.24842937911341    1.93692918579054    5.39981223069297

