48
CSD_code = HIQXAH | q = -1 | S = 0 | Stoichiometry = C22H15O9PRe(1-) | MND = 6
Re        6.40433102767827    7.16124534853732   11.02958234174792
O         6.38500237239973    8.44265255267480    9.95119742408936
C         8.92349074490000    6.72446186419661   12.34229587352898
C         8.12713092579329    7.69838032766860   13.27505128019988
C         3.74065223153848    6.65223089423006   12.29643785145279
C         4.72612214358926    5.46626136970198   12.73863947647684
O         8.31401771847422    6.44797775898033   11.23060682215144
O        10.01227118173554    6.28085918291917   12.63943989168138
O         6.93642023471453    7.94543199661524   12.86826260271224
O         8.64252749580872    8.15321215922685   14.27647721882851
O         4.27598990318797    7.44457676233393   11.46870440731929
O         2.60541680378097    6.64441793253021   12.72086546095534
O         5.86732239571393    5.60605035433830   12.18643596429427
O         4.34462768940834    4.56445012641503   13.44576392303766
P         5.97058027215172    5.37479370995583    9.45712497077291
C         5.69083857638787    5.79296108178590    7.70846738561137
C         5.98706852915956    7.06748843003039    7.24252869671029
H         6.36181744747511    7.80204541777406    7.94453513316644
C         5.77734333861044    7.37848938310499    5.90951122535219
H         6.00461332820042    8.36986951483830    5.54690564496169
C         5.27157743139265    6.42288358687711    5.04307286426515
H         5.10632687856695    6.66736484814282    4.00347955696416
C         4.96913678891582    5.15246480526632    5.50866706803709
H         4.56943029871499    4.40920762164967    4.83341022695700
C         5.17627646841605    4.83502739680958    6.83841073294872
H         4.93958991318917    3.84672839514118    7.20892803923731
C         7.34389797616120    4.19015676141562    9.44832780422229
C         7.74368762438560    3.62795727237605   10.66043746523517
H         7.21540109193967    3.88146044828776   11.56823824514073
C         8.83031455964208    2.77555250898013   10.70514360284736
H         9.14399980917432    2.35583969305511   11.64925103676675
C         9.52881063840095    2.47915237356664    9.54562719475753
H        10.38430038653882    1.82007374280878    9.58338404229339
C         9.14138402487331    3.04249955416673    8.34168440218578
H         9.69393402628536    2.82354248107451    7.43879815431219
C         8.05757475344219    3.90163095678889    8.28993329019666
H         7.77216877889962    4.35607182879297    7.35204899481456
C         4.47121700218505    4.43585547190678    9.86523897336399
C         3.26749533614806    5.12988184072527    9.74612906049385
H         3.28166005348184    6.14490119843646    9.37058636278190
C         2.08522638606968    4.53521111048869   10.14080785387078
H         1.15905350248816    5.08506665670151   10.07513405758634
C         2.09721932439773    3.24753851667685   10.65376202300458
H         1.17671940556844    2.79199899905387   10.98744772675467
C         3.28825686574882    2.54982648154013   10.75455345670031
H         3.29690461476016    1.54844715852187   11.15954565271606
C         4.47801825916035    3.13931634443916   10.36354204222622
H         5.40913344022697    2.59858577850875   10.45787647423433

