54
CSD_code = HIQXOV | q = 0 | S = 0 | Stoichiometry = C23H22ClMnN2O5 | MND = 6
Mn        4.93394139720265    4.04843519468792    3.44959436805967
Cl        3.95914559390582    2.30542834811960    2.51474751015475
O         6.46653346207251    3.18588093529423    3.55247460202600
O         4.24881133727481    3.93970029419585    5.05759119777981
O        11.41790245312023    4.09224088597494    1.39382678687096
O        -0.68991570856317    3.65755197441717    7.38967881761797
O         6.02804198231450    5.84738124311893    4.51240532442066
H         6.53833552338222    5.45119594978398    5.23024890585769
N         5.46236718426286    4.85752236039826    1.75365838182451
N         3.22653143035079    5.12033583852740    2.97094416085504
C         7.63300043646965    3.39715247621698    3.06365886560690
C         8.77782179485126    2.76187862260787    3.59786860204108
H         8.63589111189391    2.09893528321096    4.43844772795275
C        10.02679657028425    2.97066570578772    3.07813396452731
H        10.86892560777728    2.46574136525879    3.52441986410963
C        10.20784407288888    3.82592795099188    1.97351078416912
C         9.11480904934742    4.45470065515297    1.42372788050101
H         9.26332048390665    5.09723014738092    0.56944228592143
C         7.81586208124707    4.27657599684259    1.94133785727423
C         6.72297108287232    4.94730394777268    1.36321663917323
H         6.96035975975158    5.61277130255043    0.53642332499620
C         3.06961764165924    3.87046646691710    5.57238804093632
C         2.86325118679725    3.30772870215091    6.85302615962592
H         3.71965543229148    2.90583861825988    7.37332200969529
C         1.61605698327878    3.25147546737439    7.40541938034601
H         1.45553383013350    2.81198238407331    8.37728999691551
C         0.49298172584039    3.76312878582635    6.72050694330800
C         0.65902699355543    4.31658666235743    5.47419495391098
H        -0.17557777811449    4.72100105312202    4.92272884327718
C         1.93361401846096    4.38206837276930    4.87153527554716
C         2.08042181645393    4.93202157972266    3.58026347643402
H         1.15947842161544    5.19599472974106    3.06325436514588
C         3.26942024268659    5.72198072860373    1.72754000291980
C         2.26411247650978    6.49583030617744    1.14377750290650
H         1.36493242058251    6.72932467299330    1.69267226080162
C         2.41780870262259    6.97761281943293   -0.14015227204021
H         1.63172712500190    7.56629797478092   -0.58799918535606
C         3.56837996548661    6.69321653422755   -0.86426408035569
H         3.66425322719572    7.04076834126081   -1.88147803376569
C         4.59647168469302    5.97418997109856   -0.28818877249683
H         5.47569201905882    5.74887026112198   -0.87160393835681
C         4.48263112330088    5.51878690166552    1.02599746576018
C        12.55913942763141    3.43155195470633    1.88195089492981
H        13.38286565581416    3.76951444282498    1.25488832488634
H        12.46506256225593    2.34420259224952    1.79679331328037
H        12.76833840314607    3.69921516809274    2.92335528068223
C        -1.85944805775166    4.10495281015927    6.74938860611736
H        -2.67243989206398    3.90297122154665    7.44487604152483
H        -2.03748429964805    3.56238420614901    5.81556347800137
H        -1.81866201431224    5.17984845147050    6.54361795755930
C         6.74350889301349    6.95733826706128    4.00438380848994
H         6.91107365778256    7.69640311504954    4.79382861856810
H         6.12727169137083    7.40251951683972    3.22530789233239
H         7.70418800703215    6.65717044186191    3.57475753672986

