62
CSD_code = HIRKAX | q = 0 | S = 0 | Stoichiometry = C25H27AgNO7P | MND = 2
Ag       17.80380246950858    1.44465067251686    9.64229727515401
N        16.94217656303893   -0.19532655159520   10.45068414760847
C        16.43079203357378   -1.15014512882571   10.92027004920414
O        15.91788066060527   -2.09967019906892   11.38171397018174
P        18.81533884922937    3.38422396678058    8.69309486766914
C        18.55204230740217    3.62965475952020    6.91738469511642
C        17.67233193408928    2.78652913830460    6.23711315816573
O        17.03856040389703    1.85694688748586    6.99716914744633
C        16.14542202910092    0.95063863646638    6.38789874058840
H        15.29280089990050    1.47266857556258    5.94244378116007
H        15.79770488012557    0.30370626381027    7.19248416828423
H        16.64848930475167    0.34513252195624    5.62776946918481
C        17.48547000107165    2.92377464096483    4.86482468340773
H        16.80358340985016    2.27409549863971    4.34418128734005
C        18.18229723522115    3.90893572926946    4.17683640814877
O        18.07343531081083    4.13496069458166    2.84090758138536
C        17.21443063351883    3.32018849278954    2.07911119096452
H        17.51823699494411    2.26944977689098    2.11668961708498
H        17.29918300220278    3.68147321922334    1.05550167840173
H        16.17471878210446    3.41234641144856    2.40880143855823
C        19.06175306242412    4.75917112014646    4.84770108177555
H        19.57077368629349    5.51033838748844    4.26772359646105
C        19.24335948292129    4.62210836651572    6.21149119293877
O        20.04624914450088    5.39883985731796    6.97152454040264
C        20.79819534284792    6.41203234446341    6.35344319618829
H        21.48730261447382    6.00154191093105    5.60867502590225
H        21.37119587298524    6.88318965878305    7.15083456643342
H        20.15238447046755    7.15782176075980    5.87889814137800
C        18.29878479565069    4.89732286084668    9.53896930262524
C        18.51823948713999    4.80946539547072   10.91845247922530
O        19.08896616615360    3.63380124143834   11.29227285140150
C        19.42193259663553    3.42491797151686   12.64507282546159
H        20.14893925416981    4.16684890984113   12.99079496026456
H        19.86625852926316    2.43225780423906   12.69032769678654
H        18.53381567761242    3.44884305081163   13.28311189917290
C        18.16768082051453    5.83728664311277   11.78109663012016
H        18.35853200016576    5.75553492525819   12.83712992741346
C        17.54974872015425    6.96360647648205   11.24895563881283
O        17.16843795350169    8.04668736876762   11.97572394603427
C        17.38068793001730    8.03939818536599   13.36738347378366
H        16.83761696997798    7.22240346744580   13.85254082483893
H        16.99401989271351    8.99107800031096   13.72813040411019
H        18.44533342663075    7.96700224620622   13.61179909254278
C        17.26297840660646    7.03704819541600    9.88653016377937
H        16.75439094737441    7.92033894297044    9.53925135587860
C        17.60978257801179    6.00371283936070    9.02912449976237
O        17.31181379807168    5.98178789339388    7.70851132056583
C        16.65533279813269    7.08541269025202    7.13649283703880
H        15.66254002506577    7.23412203342571    7.57285268782012
H        16.55264029840957    6.84522176751187    6.07879010228755
H        17.24075111245303    8.00408243578265    7.24555631081502
C        20.63657217638123    3.43171455184727    8.77442142897260
C        21.28748171904756    2.34976889018916    8.19079246573267
H        20.69748822363456    1.56967414678749    7.72227216578882
C        22.66702464377004    2.26834848203599    8.20869516033318
H        23.16605622833991    1.42719036133110    7.74957155220974
C        23.40781479283505    3.26450360367586    8.82379449280529
H        24.48616914870237    3.20302894287849    8.84417435318898
C        22.76319316484738    4.33825915299660    9.41588927939526
H        23.34248084485776    5.11448974273497    9.89652712573219
C        21.38299009457467    4.42511098438617    9.39314332529903
H        20.88389339623899    5.27215238281367    9.84147872337053

