25
CSD_code = HIRLOJ | q = 0 | S = 0 | Stoichiometry = C10H9CdI2N3 | MND = 4
Cd       11.61857183181335   -0.39457471435469    6.48155122031389
I        14.00121729001961   -1.19234609770794    5.56982171949582
N        11.11268408266945    1.47647902139598    5.09099405307544
C        10.70710262003460    1.03344284141864    3.89852969840391
H        10.63254820161108   -0.04751616174686    3.79285133864418
C        10.39070353159062    1.85892674308619    2.84120077280713
H        10.06874533188782    1.44573431001456    1.90006372504683
C        10.50140833027611    3.23342770594076    3.02748337280474
H        10.26690196028904    3.91895562682887    2.22760375621975
C        10.91532641738931    3.70518175824623    4.25114941922412
H        11.01152764651700    4.76555967764393    4.43078762295887
C        11.21738632851310    2.79051880872087    5.27545043224918
N        11.61873654097044    3.32218429500481    6.48147895465728
H        11.61846176918354    4.33431787305446    6.48157493534507
I         9.23545912706000   -1.19015932339238    7.39351430421930
C        12.02047293294117    2.79051055249547    7.68737605500509
N        12.12582178589871    1.47649088399516    7.87160451364344
C        12.53179601783761    1.03345507781908    9.06393649450483
H        12.60691467632588   -0.04748471489298    9.16941572181521
C        12.84791746268346    1.85891602380589   10.12136613863094
H        13.17018830726687    1.44572438164489   11.06239670145127
C        12.73651008488535    3.23339326743813    9.93532949790264
H        12.97077786533283    3.91890230936387   10.73529520647580
C        12.32221964690597    3.70514927399986    8.71179067153808
H        12.22550021009706    4.76551058017727    8.53233367356718

