74
CSD_code = HIRMON | q = 0 | S = 0 | Stoichiometry = C41H30NPPt | MND = 4
Pt        3.39278433450153    9.27684541840927   13.16057117769208
P         2.36398705128202   11.13698662821657   12.43005007456770
C         1.75741845393300   12.22152470388560   13.75974614311564
C         7.75852465080702    4.38827232977235   15.61245702695316
H         8.33381631960949    5.20351326857516   15.19791972923227
C         1.08773853143803   13.41876452088781   13.52833052044870
H         0.89258381937972   13.74444614442199   12.51563123598558
C         0.64652092140021   14.17779422832896   14.59726030642759
H         0.13508435366239   15.11251501535074   14.41778698049418
C         0.84986795319611   13.73880080801832   15.89610224217519
H         0.50304560234781   14.33668639897690   16.72613961781832
C         5.64601764713514   13.11929790808591    9.91064620586964
H         6.43649432607854   13.54516999454894    9.31033647383954
C         5.20178843007167   11.64171218597454   14.34572236178905
H         4.56404656212937   12.39493683168902   13.89571084949860
C         5.77238299088485    9.37555311988470   14.81950120720616
C         8.40558756487577    3.29955196817483   16.16629614919771
H         9.48515894930070    3.27536340618839   16.19685892304133
C         1.48091819829389   12.52753451012530   16.12949814038466
H         1.61927326192632   12.17508504905128   17.14095001465907
N         4.37306008981333    7.74173075124713   13.87035710324862
C         7.14660933457710   11.15453685240381   15.66984173579930
H         8.00690688719186   11.48913029682876   16.23235250421097
C         5.56824065720898   11.74520213494177   10.08033977901846
H         6.29804893221756   11.10012333338807    9.61371274140167
C         1.03123444444543   11.45360122988428    9.94982893710171
H         2.00386702564730   11.63325539153201    9.51360458718106
C        -0.09971298742276   11.45582963560995    9.15112186847282
H        -0.00635626743232   11.64261840529264    8.09113601022142
C         1.93083991784772   11.77054937896867   15.06384166138981
H         2.42489556682425   10.81409567107742   15.21962981718005
C         3.61534665318821   12.03720380140279   11.45833945105368
C         0.91704137402276   11.21899929586259   11.31461329422065
C         6.36750866771144    4.43028552534106   15.55693248325880
C         5.44136472576324    7.95982649622981   14.65110599225013
C         6.29029112947721    2.27620614145282   16.63328271343018
H         5.71507813906073    1.45541628849816   17.03627037486792
C         6.87933916167096    9.80569257318361   15.54795495462888
H         7.53868286785287    9.09069047363589   16.02003509443835
C         4.55963662688407   11.20779462323370   10.85579393791380
H         4.48593909311133   10.12886043915504   11.02141921039140
C         2.26037036590642    7.76073807490047   12.32892549158150
C         3.69942789155474   13.41207873218825   11.28918247317314
H         2.98712750510462   14.06643912624901   11.76927325435418
C         4.56662278541373    5.40194665073324   14.14449692792311
H         4.22226571338730    4.40545928474651   13.92129092003234
C         6.30308954239728   12.07270041948181   15.06701811182593
H         6.50471625504757   13.13154652450023   15.16015644651351
C         7.67401256847261    2.24175729624682   16.67997694801319
H         8.18059700245276    1.39321105153187   17.11535452213696
C         6.11658450280568    6.88158452802494   15.21483293325252
H         6.96085871567433    7.04555177575240   15.86423248733378
C         5.67671165667310    5.58403240405173   14.96506630277169
C         3.92143986309295    6.50810692190108   13.60016001583269
C         0.59796986024215    6.57599367524608   11.00162953135084
H        -0.24445928778144    6.61879385380224   10.32398078041366
C         1.17425239840545    7.75231228012228   11.45635682656745
H         0.75473679444975    8.68738020704374   11.11020686106294
C         2.75642015841078    6.48885207871674   12.71675776052773
C        -0.33782409012777   10.96220094606961   11.86385520785933
H        -0.41563867796006   10.75090763537631   12.92251119622749
C         4.89343475224594   10.29172002614046   14.18761483326882
C         2.17626109807740    5.30600086104063   12.26480619528546
H         2.56994241496691    4.34745320669153   12.57343216591845
C         1.09403053071616    5.34915431712215   11.40837462463832
H         0.64339785545965    4.43196947822793   11.05575402758077
C        -1.34583788704824   11.21612041672981    9.70477148551491
H        -2.22525777672345   11.21754478877627    9.07780893821617
C         4.71752127518385   13.94781970933760   10.51798459205510
H         4.78743095342925   15.01870436800239   10.39278544706350
C        -1.46339115014305   10.96543758065856   11.06359196514395
H        -2.43336983463019   10.76689286525003   11.49548062601949
C         5.64070300441636    3.35974851220524   16.07252881271657
H         4.56085127806492    3.38993722497567   16.05347165598790

