78
CSD_code = HIRMEC | q = 0 | S = 0 | Stoichiometry = C40H22F8IrN5O2 | MND = 6
Ir        4.53166263316605    5.10954910977170   11.68938366750634
N         5.85464242702837    6.46232019908044   10.98375337448833
N         4.12883880956469    7.74893674451567   10.04839294649798
N         3.33659855520734    3.71471074371957   12.52736732628583
N         5.11934386674748    2.19334520269771   12.73718550433000
N         3.66927315094376    6.62875608168634   12.99150328709893
F         2.66129372618420    3.18129713431949    9.81841753029179
F         1.64488696948413    6.12405245939139    6.31588787974959
F         0.23493564927518   10.48622750895360   10.18092441711940
F         4.11375646844997   11.85626959020059   12.43759875840040
F         5.94642873825976    4.79817168231006    8.75850270735572
F         7.79058488315052    0.51550391823420    9.20200539110912
F         8.66872722336024    1.99412317920660   15.90517621339373
F         6.34760968763197   -1.93898100903223   14.85282893974414
O         5.75106081750468    4.94867372808191   13.47337224895828
O         6.26443747154584    6.03547230362610   15.33534716215533
C         5.49044100548595    7.55873247383213   10.30574961682968
C         6.42574270321025    8.47765372612979    9.83291485804326
H         6.08544100333588    9.33014963430625    9.26646785686351
C         7.76666501953142    8.27165821019603   10.08669589980030
H         8.50641103587593    8.96858009664811    9.72530911045801
C         8.13677148533844    7.14173110891796   10.80417911131072
H         9.17007898852554    6.93738393623918   11.03045368823752
C         7.15619083494329    6.26525779609761   11.21851728234278
H         7.41145166472031    5.37395619609639   11.77320142085864
C         3.44940636494791    6.67093040900394    9.39725067527953
C         3.43489099703399    5.40990367852968   10.00180829609535
C         2.74358862213554    4.42889095581383    9.29189960877105
C         2.11612694024188    4.63242808136452    8.07770874291889
H         1.59664733422597    3.83200747628407    7.57753571240536
C         2.21222508037989    5.89111991084615    7.51557433748229
C         2.87794127747059    6.91804886182904    8.15338893325584
H         2.95951970117874    7.88347513047291    7.67948373230363
C         3.48744354865109    8.91363917648886   10.41951378564993
C         2.15037272891733    9.15052466941853   10.07957123465835
H         1.58507574318848    8.44552062432719    9.49444918929975
C         1.52371797881837   10.29794368613294   10.51907259664429
C         2.14962895257284   11.25205695904737   11.30086403938304
H         1.64287626619425   12.14213607254301   11.63041201604447
C         3.46157247081735   10.98444740123887   11.64626292023292
C         4.13240269109652    9.85215997197297   11.23542515348770
H         5.14198291957071    9.70215715031050   11.58064357248487
C         3.92471410707587    2.68769361477926   13.16976101221655
C         3.28610929578562    2.09553683535236   14.27923532844874
H         3.80060546105877    1.34066504957870   14.84940626398149
C         2.01408293240402    2.47680543754164   14.62458864373914
H         1.52195183939529    2.02528682546974   15.47191034622306
C         1.36296903800070    3.43421833655796   13.84918996153459
H         0.34558524034342    3.72436841036355   14.05047658917675
C         2.07186391460230    4.02795529847977   12.83285760276858
H         1.61627375843703    4.79591665570070   12.22421612835734
C         5.48525036261115    3.59653871587860   10.74817816844619
C         6.08854242070806    3.66322545435847    9.49757672802576
C         6.86238669428644    2.66351111916079    8.93754669823855
H         7.30708335450214    2.77779402369539    7.96347507919787
C         7.03876033601895    1.52164600871681    9.69160546141014
C         6.46725833331624    1.37730964506509   10.93847182773995
H         6.63275809661545    0.46081383342213   11.48005695397926
C         5.68808115196363    2.40971982335294   11.46199975700864
C         5.91345643414522    1.43358897944317   13.64702244535208
C         6.90423516336517    2.09863333201662   14.35526482874943
H         7.02722845818014    3.16565595585802   14.24275678914820
C         7.70214362829081    1.37015482463686   15.22066949801754
C         7.53905461457924    0.00756508401016   15.40532537822603
H         8.16855284437589   -0.54452149423873   16.08342202652140
C         6.53541353519478   -0.61896919349626   14.68852426977354
C         5.71748890775808    0.06607809594555   13.80767580378159
H         4.94807055702778   -0.45685888694145   13.26149336175873
C         4.42345971000803    6.82845661352358   14.07424846699748
C         4.14297490036050    7.82602096830087   14.99853197234186
H         4.80482538835878    7.93195937264212   15.84420853233564
C         3.03766339927487    8.63335520279156   14.80479123859014
H         2.80168914647217    9.42643317247399   15.49805943683282
C         2.22891520653203    8.38807435330104   13.70419592901908
H         1.34023842920836    8.97023418782327   13.51997887641853
C         2.58448892356631    7.37806313565535   12.82934346996368
H         1.97697553290074    7.16211650375359   11.96146541544277
C         5.59755444719658    5.86643273413444   14.32836896459485

