84
CSD_code = HISCAN | q = 0 | S = 0 | Stoichiometry = C35H45O2PTi | MND = 8
Ti        7.54148601855796    2.37662379272930    4.42593639672564
P         8.51683486737465    3.58164462205458    6.31779888921957
H         9.58477718613908    4.26238622718420    5.70843544155395
O         6.64532607453538    3.73073972233999    3.91638393470184
O         6.56357982043991    1.41579315612873    5.40984769212903
C         8.07176708004965    0.93156291332693    2.68873610373456
H         7.43022074453276    0.17395324991835    2.25282570397410
C         8.25947356028506    2.23352573102276    2.16965298104414
H         7.74845101253832    2.65363111037374    1.31171348108606
C         9.29689087995818    2.84387168436412    2.88898709541549
H         9.73018127287112    3.81503078226637    2.67731439893904
C         9.77135904058712    1.91665278752000    3.84340171701835
H        10.65958877070650    2.03238323627278    4.45198165642266
C         9.02168727598579    0.73112950919440    3.71537136593129
H         9.22532771829567   -0.20061504970200    4.23043098211427
C         5.50126740890249    4.40524016787047    3.86383677816874
C         4.31801874263647    3.76572126883098    3.44056265474732
C         3.14858714959010    4.50663214917894    3.37080268558452
H         2.23864664834438    4.03345320093659    3.03357030260709
C         3.12475891358608    5.84306360762795    3.72616476594996
H         2.20103197029227    6.39942869813622    3.67367434705895
C         4.28826825217663    6.46542450758808    4.13894023502358
H         4.26465805050734    7.51070740092875    4.40819034183547
C         5.48524104981755    5.77143268310013    4.20368203686239
C         4.35860502638097    2.31483996862022    3.01177785782225
H         5.31287553535235    1.88085405210615    3.36431882063316
C         4.33305433504846    2.23475723328430    1.48096182064078
H         4.41604861945247    1.20098030891725    1.15055254856848
H         5.15828093412504    2.80486801614074    1.05776644930450
H         3.40244103197122    2.64743900012491    1.09646749483229
C         3.21722349901170    1.49111319610443    3.61089095134465
H         3.35107236590350    0.43941870740502    3.36499837707870
H         2.25485192066626    1.80864700456270    3.21658933169255
H         3.20154777634700    1.58640696375211    4.69443073315868
C         6.76957362803159    6.44631031302662    4.62695813009723
H         7.58712390341455    5.71925919028799    4.50497808620302
C         6.71057471346579    6.84215341154542    6.10300532296437
H         7.63220543882147    7.34154985350674    6.39324623002852
H         6.59490940748248    5.95343715820798    6.71986052364124
H         5.87658770844575    7.51557976486409    6.28945212021134
C         7.07175602428392    7.66073274224448    3.74676993239708
H         7.07816059856834    7.37803123148933    2.69619085703914
H         8.04621585424112    8.07240281638153    4.00096184180839
H         6.32605082128129    8.43924661742592    3.88796518310915
C         5.57005398943350    0.87353494331950    6.11838854691233
C         5.31314661244720   -0.50793722547959    5.99690519125958
C         4.31200467719990   -1.08191101549157    6.76216978748539
H         4.12258629569745   -2.14111481459143    6.68404766249089
C         3.55271026218931   -0.31753002420276    7.62808023487428
H         2.77862276470724   -0.77899113390029    8.22249832715529
C         3.78845461451118    1.04031142004912    7.72718134802598
H         3.18919371209924    1.63231428274176    8.40162259927604
C         4.78096212230531    1.65994041386221    6.98216527060238
C         6.15702702485560   -1.33464929262393    5.05428790670792
H         6.61208799420175   -0.64337592069324    4.33246407495675
C         5.33796015465497   -2.36298531929645    4.27376163432000
H         4.46620191919517   -1.89615800733922    3.82007994101669
H         5.00049878341349   -3.16999757932332    4.91902582922556
H         5.94730193791752   -2.79965892377559    3.48474503338607
C         7.28244133787243   -2.02126633990244    5.83492328645992
H         7.91414943692198   -1.27800785874175    6.31868681740156
H         7.89762239002769   -2.62126847024129    5.16657988265390
H         6.86654055622812   -2.67341689976923    6.60053123679737
C         5.03034687478493    3.14311770675957    7.12356076949134
H         5.71338959389598    3.45320448650495    6.31839477624122
C         5.70214225250235    3.42764486698661    8.47054077959377
H         6.67283963524076    2.93704208256512    8.52422407209221
H         5.08286673030966    3.06616516579766    9.28928688851356
H         5.85461019921252    4.49703420558670    8.59580186211703
C         3.74074676921217    3.95634802654170    6.99129580213110
H         3.20958548112570    3.69249651120525    6.08012976865731
H         3.97843762368473    5.01629938474630    6.94585018341149
H         3.08225917350595    3.79109424551507    7.84065308520833
C         9.55338795753151    2.27309814246534    7.01493055631198
C         8.95199281514694    1.13042507818751    7.55274632426579
H         7.87141805908132    1.03406970109967    7.51972634652813
C         9.71472290482853    0.13448134031680    8.13029234647497
H         9.23304551660540   -0.74246821680308    8.54067008535921
C        11.09479554359056    0.25584700735361    8.19144890669068
H        11.69036887251424   -0.52676983619760    8.63746530867684
C        11.70216806319951    1.39312810803992    7.68506886263817
H        12.77631676609762    1.50140418795763    7.74108737615754
C        10.94235223805232    2.39340354841669    7.11029994444446
H        11.42415169254495    3.28575731322207    6.73059674357235

