37
CSD_code = HISGUL | q = 0 | S = 0 | Stoichiometry = C10H18O6PtS2 | MND = 4
Pt        1.70316562163192    6.64548523768742    5.30426634850140
S         1.64454160390613    6.64047696001447    7.55379288852660
S         0.64195225487407    4.65727499553633    5.26521545795156
O         3.36486077525370   10.20766594957806    4.37317959764699
O         2.84081045063373    8.32267878828436    5.38256113405379
O         1.88922402383899    7.81692013124420    1.44261509462532
O         1.77824251054450    6.60261509498874    3.27635925425801
O         0.32453256842688    6.27533540315226    8.05219631252740
O         1.21572947861887    3.74476351607318    6.24202556338833
C         1.48721976499112    8.98311616047086    3.50534196992889
C         1.02678809768950   10.22420023888182    2.73204714938089
C        -0.31387726181257   10.19466636294270    3.48138060026520
C         0.11921328758379    8.92455959570409    4.23690614535921
C         2.67247861396253    9.22123073358015    4.45314858145949
C         1.76293985050495    7.74103256059095    2.64149337818425
C         2.14013121562608    8.18946183410336    8.36212306469493
C         2.85847637074577    5.50870822020548    8.27174023199025
C        -1.13721284447471    4.76982778196363    5.60704373719888
C         0.60447005289755    3.80697331088245    3.66435600750607
H         1.65022595367368   11.09436372391155    2.92306303445841
H         0.96402195476424   10.04884284265375    1.66072496441566
H        -0.47977118486822   11.05341885168604    4.12778459848515
H        -1.18469598796442   10.05780692123964    2.84410409245921
H        -0.47827080728491    8.04167594796408    3.99232671857429
H         0.17434372974381    9.04198628149463    5.32352421084322
H         1.32659614073999    8.89756981361764    8.24836913861821
H         3.02130081154023    8.55285246315379    7.84432397547665
H         2.33305475792101    8.00884429209531    9.41299828569117
H         2.64685160332584    4.52067047535103    7.87266203847588
H         2.75595362869550    5.50728629989739    9.35069508101291
H         3.84023212852563    5.84814359660938    7.96295121332186
H        -1.24171540444803    5.25894326503445    6.57162143944639
H        -1.55649922592520    3.77131850556389    5.64874302982129
H        -1.59625577901612    5.35935696558229    4.82249865627877
H         1.62934558191940    3.57135862273376    3.39884212098382
H         0.19182122171074    4.49023992073400    2.93158929027354
H         0.01737444149702    2.90012833479637    3.75348559392013

