84
CSD_code = HISHEZ | q = 1 | S = 0 | Stoichiometry = C24H52CrN6P(1+) | MND = 4
Cr       -4.72033643560096    6.86037806459544   14.33262418934806
P        -3.70085633318489    8.53095277466748   12.40544521640391
N        -4.00625062411297    8.37551112276346   13.95466349429393
N        -6.41031611545229    6.91763368506674   14.81428616541919
N        -3.49546798720360    5.81914838066087   15.11952422440979
N        -3.84600609473119    7.21750646251096   11.34171175196882
N        -2.19993079383662    9.25162148640535   12.27853542384789
N        -4.80013243534816    9.54710847962018   11.63473934449596
C        -7.17520808541974    7.80716997824095   15.65664405233231
H        -8.18346781268391    7.40712657604723   15.82358953935750
C        -7.29748296672519    9.18812955705217   15.00916036645659
H        -6.30311053091211    9.53568632594385   14.73058417967344
H        -7.73895569663969    9.89258861612293   15.70830066869009
H        -7.92907863512003    9.13806493983326   14.12490306378963
C        -6.46405644177607    7.93092703046063   17.00793761010644
H        -6.38756847784831    6.95807407832273   17.48711556264211
H        -7.02044747676882    8.59511968196203   17.66283491706795
H        -5.46610518436193    8.33153644855780   16.84853972494636
C        -7.04108594757702    5.71900917204343   14.32475134275881
H        -6.25771891059935    5.17134695888568   13.75840324062184
C        -8.16529921975914    6.02846763577421   13.32096942925081
H        -8.95535303726193    6.60349156410852   13.79894480363189
H        -8.59468066915576    5.10076532720278   12.95081474194610
H        -7.78145476743441    6.59620845279727   12.47497478377757
C        -7.57906622848951    4.80834888387229   15.44026555024482
H        -6.83804643461898    4.68251308664869   16.22646777426086
H        -7.82938569407016    3.83137283096367   15.03385084552854
H        -8.48049606673991    5.22859083848181   15.87981021942464
C        -2.21456457759060    6.22564304722898   15.67535890055163
H        -1.81721598132490    5.42164201384135   16.30680569028144
C        -2.38999326462279    7.46125600435361   16.56474622355202
H        -2.77261364309384    8.29149289140795   15.97533610177482
H        -1.43452523285467    7.73571811551860   17.00400989458722
H        -3.09135398230052    7.24694915316535   17.36664557634804
C        -1.17746074730641    6.49849161477365   14.57941097700904
H        -0.94351448642812    5.58856139058326   14.02966273381244
H        -0.25961427310377    6.86708116526221   15.03055096817971
H        -1.55674689895372    7.24944066874203   13.88683300389905
C        -3.88953463548220    4.46654291871420   15.44776320104956
H        -4.85857211072060    4.28812606608984   14.96147173914475
C        -4.08753684005853    4.25983586856407   16.95859079144752
H        -3.13847794354917    4.23819763943736   17.48728955556418
H        -4.59179169625451    3.31356585591563   17.13685539343385
H        -4.69174559423856    5.06903669034539   17.36570281729047
C        -2.92003542584275    3.41549680806037   14.88193242959324
H        -2.79320623478756    3.55126332893919   13.80935980818568
H        -3.32333821237032    2.42197913264942   15.05903098785662
H        -1.94553101434354    3.47427117452752   15.35937633456573
C        -3.78291610538904    7.39186038593953    9.89008768835159
H        -3.86182122048728    8.44324820550256    9.62433796590263
H        -4.63754599488832    6.86244896532899    9.45451883799069
C        -2.46789311938349    6.74052463670859    9.41497252379965
H        -2.67271861078089    6.01175904644418    8.63243944936069
H        -1.77582036096412    7.47638877679524    9.01183993296964
C        -1.90457628822166    6.05458117828581   10.66658324944411
H        -1.13392970562180    6.66771405770515   11.13558212018173
H        -1.48559167556150    5.07386488771085   10.45258630088199
C        -3.12242595695632    5.97907351536961   11.58659485552326
H        -3.76392498593208    5.14143990132674   11.28333394316505
H        -2.87131958855685    5.87850752235324   12.64373941669849
C        -1.63631995957987    9.74139534869310   11.01710441179136
H        -2.41187309670094    9.89887434680654   10.26679567782285
H        -0.91549404062664    9.01082127431695   10.63419229038567
C        -0.91329447385576   11.03732053677094   11.37864458053788
H        -0.07848049063347   11.23856898622281   10.71140147425919
H        -1.59859364185368   11.88529668447826   11.34201275229420
C        -0.47712686635371   10.77632789564661   12.81678650664302
H        -0.24500588702290   11.68759634431037   13.36220109434482
H         0.39739408183524   10.12539696303092   12.82874127076140
C        -1.68234182022160   10.05022714204605   13.40156811691133
H        -1.41480017241690    9.40279401117221   14.23669054101812
H        -2.43247200004774   10.76471354715096   13.75463295397560
C        -6.17495440747564    9.08034094586898   11.45137865094869
H        -6.46967818717776    8.41920449258215   12.28099170660882
H        -6.23529376037166    8.51389333784658   10.51903653287550
C        -7.04310032775493   10.34656717305745   11.39927387168091
H        -7.62357569347435   10.45172454215614   12.31499351989634
H        -7.73143641475083   10.32965228132229   10.55723072492369
C        -6.03243982419208   11.48946156445511   11.29510572538311
H        -5.75122920414645   11.65469068348736   10.25498487293590
H        -6.40784899825594   12.42070800504285   11.71157731579974
C        -4.84182887367358   10.94066201589416   12.06902496716955
H        -3.90533061252262   11.43846419978612   11.81695691954294
H        -5.01155381735531   11.02519661052314   13.15113188237829

