44
CSD_code = HISJIC | q = 0 | S = 0 | Stoichiometry = C18H23Cl2Ta | MND = 9
Ta       11.39265150164039    1.78501176123088    3.12296865267942
Cl       10.92014132612386    3.72925533092935    2.06881988457318
Cl       13.65857178175558    1.97410253891661    3.46104742896660
C         9.24596284791336    1.34896581304677    3.67253886640100
C         8.96313434114988    2.03396186932079    4.97224518977171
C        10.03640182960039    2.11170722473574    5.87420075092176
C        11.31264547264805    1.50562425641061    5.42113410554868
C         7.74917693099085    2.61216097231187    5.30685742251659
C         7.59248802477976    3.26158309671344    6.52218547087606
C         8.65142546232760    3.34113310415647    7.40864280529617
C         9.87271780595209    2.77186885802538    7.08323433635570
C        11.63075050752471   -1.26830629936144    2.87792735639526
C        10.43366219537637   -1.91259622480486    2.82341895155137
C         9.63574319877953   -1.34360621533608    1.74844157091898
C        10.34327350728147   -0.34929722072935    1.15450943223807
C        11.64441705955448   -0.20343260730349    1.85207086721368
C        12.80921116634967   -1.58467750645498    3.74594005761340
C         9.94417355913297   -3.02678181512088    3.68405652444095
C         8.26470954613462   -1.82799727987302    1.41913018578827
C         9.96137478404915    0.47437495077155   -0.03604649956877
C        12.87152720154186   -0.10051137502153    0.96426875859878
H         8.52081283533444    1.67984915565002    2.92301466746584
H         9.05005400999208    0.28214550873165    3.82567617097543
H        12.16068836474275    1.90051497387546    5.98213141569114
H        11.28470836751154    0.41886650105706    5.55932159369959
H         6.92336298680284    2.56372988418426    4.61073191700245
H         6.64306349595864    3.71207390197873    6.77229603575622
H         8.53064703327406    3.85332259357677    8.35183649211900
H        10.70284337585385    2.84159737612707    7.77218210966952
H        12.49261153275434   -2.01256114205475    4.69431716324986
H        13.39280607086125   -0.68864430146891    3.94865448209754
H        13.45618286513617   -2.31128687700616    3.25140458157950
H         9.03760970212011   -2.72830027707586    4.21108075693803
H        10.69237126730248   -3.31618897761812    4.41595482069310
H         9.70082220723434   -3.89693131475255    3.07528992621953
H         7.81959918066078   -1.23456382224025    0.62590891059207
H         7.62253131202959   -1.77508498079442    2.29791674951895
H         8.29682608277728   -2.86777914108212    1.09424969750648
H         8.88284997056241    0.60680149052185   -0.08659401618528
H        10.28094633356191   -0.01720880133450   -0.95692720923453
H        10.42467265086485    1.46034893474711    0.00125509867979
H        12.93330649453102   -0.98573269277884    0.32908201572409
H        13.78067970924737   -0.04670328245408    1.55981126195507
H        12.82164410027354    0.77529205764731    0.31631323921192

