41
CSD_code = HISKAW | q = 0 | S = 0 | Stoichiometry = C15H21Cl2NSiTi | MND = 8
Ti       -0.34287473101393    6.69804738179515   10.16157227032886
Cl        1.57905703409904    7.63054956018035   10.53561468540273
Cl       -1.67085486611648    8.40054044027783   10.41087129289692
Si       -1.29844018570443    4.04754724613866   10.74748611558624
N        -0.74750966604295    5.51003417231319   11.52527341261299
C        -0.88883548543523    4.83322659375957    9.06181235001935
C         0.46022365004437    5.15109255182907    8.73709739420906
C         0.46533891377001    6.29765212217143    7.88527830087012
C         1.49278723269913    6.98884391283068    7.21968718272937
C         1.16952099497968    8.10281602697445    6.48482291751426
C        -0.15852693121449    8.55137566050904    6.37870730858640
C        -1.18943038732075    7.89152789670579    7.00155764116326
C        -0.89533335130122    6.75256999054704    7.77036400171211
C        -1.70770093248645    5.86568483551589    8.54060259459647
C        -3.17301106154386    3.71485692753577   10.93311484442912
C        -0.29189695667956    2.44660931084221   11.04062307919882
C        -0.45682887787650    5.69199932814923   12.93574049538982
C        -1.42200530049223    4.87555388241681   13.80459728889002
C         0.99081652616958    5.24317741112906   13.20076499925511
C        -0.60912394344274    7.17753087667143   13.30607227986150
H         1.31829226609005    4.51568372013857    8.93351037778073
H         2.51585708038338    6.64250138554055    7.29020225341119
H         1.94618556186771    8.64960913314497    5.97054618966405
H        -0.36473223934456    9.43103210031266    5.78686476123544
H        -2.21162813198980    8.23308583497851    6.90519799527583
H        -2.79157804334498    5.88468966996101    8.57723298570294
H        -3.54242714372188    3.11368602972475   10.10881254758577
H        -3.39209034195560    3.17875514796658   11.85008450236112
H        -3.73443699385521    4.64554838818888   10.94855059815085
H        -0.57710592426611    1.68328855597015   10.32436583981509
H        -0.47162916741568    2.04276075791851   12.03125969134910
H         0.77595359324087    2.61559906522551   10.93848092408998
H        -1.30416742461025    3.81330507192214   13.60995873173661
H        -1.22441299401683    5.06006169058321   14.85742070363404
H        -2.44683499504980    5.16178945410237   13.58236626665546
H         1.08587009439540    4.17373199533213   13.02737263660251
H         1.66394216015295    5.77221312536290   12.52302360204934
H         1.27614589461336    5.46094144399497   14.22691470321549
H        -0.43132035632570    7.31575802747101   14.37080136262101
H         0.10991135297822    7.78827392562713   12.75138454984041
H        -1.62076592290921    7.51514934824499   13.07238832197598

