75
CSD_code = HISKAV | q = 0 | S = 0 | Stoichiometry = C37H37Ta | MND = 11
Ta        2.66062991550990    1.97214131118673    2.76185679897977
C         1.64933720450311   -0.09907923574296    3.04667893178172
C         2.21334085464800   -0.89669167006995    1.94104693750551
C         2.40148357506080   -0.22218152902426    0.71658252519705
C         1.97194168460803    1.18601264681144    0.67400766722713
C         2.63189992939322   -2.21301879171527    2.06654138006251
C         3.23703943118475   -2.86140758429214    1.00299195913648
C         3.44860381477370   -2.19152398245754   -0.18927608729539
C         3.03748536157670   -0.87678746390550   -0.32971252813512
C         4.69767202167336    2.28483398399949    1.63074328618946
C         5.53411358479375    1.53831661594101    2.66768209770639
C         4.61251573925500    1.31270077453212    3.88892941430079
C         4.72089400626078   -0.10779338323658    4.22959067817738
C         4.25860734370682   -0.86873583523308    5.27952320134825
C         4.50282675275122   -2.25306251038940    5.27002538965035
C         5.17789506944532   -2.88436877607741    4.25337928546025
C         6.39286190883647   -2.60852522535882    2.04275972407732
C         6.81973129000983   -1.73050552645508    1.07868591656344
C         6.59546125264963   -0.34317004950975    1.16099308203915
C         5.90698179259861    0.14373527076934    2.23844429598696
C         5.43617455990440   -0.75978402995500    3.20139044578732
C         5.67566359096067   -2.13857649215544    3.16286225607181
C         4.93869922808422    3.72169254232822    1.47376005940540
C         5.34255805689115    4.53765360030212    2.53944656915117
C         5.51468110835526    5.89852466698097    2.36971915518007
C         5.28392949218636    6.48848158229515    1.13774901116148
C         4.88216918384536    5.69928020603153    0.07104143206240
C         4.71357521490709    4.33918251860448    0.23582459702669
C         0.71349981624773    4.13710874503824    2.40714656148273
C        -0.49356939060691    3.49259252648868    2.42171316048488
C        -0.62839676025220    2.77817764940946    3.67080843161137
C         0.49757501373688    2.98284557337632    4.42136900000899
C         1.44282790902148    3.78431284030302    3.63274142743704
C         1.23764096684345    5.07901094926701    1.36760409414416
C        -1.55077083645286    3.49612008863115    1.36797318149957
C        -1.83790105503565    1.97783613929382    4.02300656142170
C         0.76980326923349    2.51623383751638    5.81952823283019
C         2.30034744516289    4.82214103077719    4.32171781474863
H         1.79542787629043   -0.58581753339128    4.01237474311835
H         0.57957293401196    0.08238312485328    2.90115536273209
H         2.34083349342751    1.70518447092527   -0.21163361341225
H         0.88033220806597    1.26896965996777    0.70191782995349
H         2.48932700968165   -2.73038871361665    3.00455838271088
H         3.55587772965134   -3.88740591805451    1.11058489611219
H         3.93806949869593   -2.69280644440620   -1.01131777734004
H         3.20476565195731   -0.35564958866148   -1.26253868098076
H         4.72005909361428    1.77613229037324    0.66559793638082
H         6.44322345470984    2.09558617623055    2.92597848170957
H         4.78927031593881    1.99179542533019    4.73185568929328
H         3.71749118365660   -0.42631538053950    6.10519658022311
H         4.13759966227235   -2.84063472804556    6.10165676184857
H         5.33717068973118   -3.95261318041351    4.28675866814378
H         6.60362574855817   -3.66427979395354    1.94934665794635
H         7.36366820757847   -2.10970340197495    0.22478649177717
H         6.97504178647313    0.30736547693114    0.38641024048883
H         5.52956938003986    4.10148756190559    3.51163449398763
H         5.82982175746457    6.50581872228509    3.20660774342007
H         5.41922394708797    7.55175288477064    1.00920307454235
H         4.70311922096854    6.14945932713064   -0.89470012025651
H         4.40755317469508    3.73070377522213   -0.60409635750594
H         2.32695610325384    5.08812600128292    1.35138523057284
H         0.89652769549228    6.09555044797074    1.57402521184814
H         0.88458847518701    4.80464570848296    0.37497050296125
H        -2.45640668142633    3.97586562831956    1.74065879158545
H        -1.81279735919618    2.47688239157086    1.08128401212374
H        -1.21963612082845    4.03173084727600    0.48241334473664
H        -2.71454087027976    2.62335070077926    4.08393258107690
H        -1.71457093125000    1.47706069413200    4.97955518060792
H        -2.03697021416743    1.22497609160957    3.25914935010444
H         0.42685985163076    3.26128361328014    6.54064343378829
H         1.83636201160065    2.35568342351388    5.98331817083267
H         0.24956414594437    1.58359249308015    6.03020141921385
H         2.86770438451032    4.38603572469281    5.14528986091347
H         1.66917290432911    5.61112430335490    4.73485044138072
H         2.99771323433898    5.28364470383028    3.62260903638035

