77
CSD_code = HISLUT | q = 0 | S = 0 | Stoichiometry = C30H40O4OsP2 | MND = 5
Os        2.61429003400061    0.87190605584878    5.10622959372842
P         4.73839482090831    1.88703560846461    4.48382595649875
P         0.80184112050391    2.14321258108989    4.01508621167387
O         2.82536352205375    2.35393912811540    7.76749437175471
O         1.93624212646855   -1.63834555054955    6.70669168697551
O         3.00830167033541   -0.66435042653265    2.49502653316863
O         3.00390524427572    2.59707117644941    2.31484460607136
C         2.68712210047670    1.81260316460851    6.75010004319292
C         2.17566762530044   -0.68278026452874    6.09037017950977
C         2.80818584607516   -0.12753619933163    3.50201991178635
C         6.12139060102336    0.86671941721951    5.22574985851510
H         7.08227592185718    1.28977688283156    4.91810220917290
C         6.01297400118565   -0.57178707923638    4.73120210725159
H         6.82493950617536   -1.17340493872370    5.13658275454620
H         6.05025334479845   -0.62532731534893    3.64410760020276
H         5.06590788245794   -1.00356518157828    5.06243915751935
C         6.02745930161370    0.90285090035358    6.74696992264034
H         5.05728157691062    0.51768961037817    7.06691884911062
H         6.14327687447007    1.91269447184484    7.13554874185052
H         6.80319609758990    0.27674562578781    7.18502245659194
C         5.23886045409557    3.62502251110326    5.00310552296786
H         4.94606871248928    3.69410450464352    6.05919653636274
C         4.41985615959317    4.63605325739763    4.20693338994678
H         4.50792370322784    5.62902491351033    4.64574151702254
H         3.37083468916252    4.35085669353392    4.19998266193119
H         4.77303887244652    4.68312563465096    3.17746326006502
C         6.72506077734460    3.93943670616719    4.86576198236058
H         7.07059857592358    3.73685241751817    3.85318058229482
H         7.33084946285923    3.37402544925413    5.56869740801544
H         6.88424348176809    4.99798318310456    5.06939660261971
C         5.22655398222318    1.93956917397146    2.71646751221316
C         6.48662733253570    1.62232052898377    2.22329645531966
H         7.28742965029992    1.35338965416922    2.89279507548784
C         6.72881897274595    1.63077276131475    0.86277688622510
H         7.71074061635187    1.37651195991519    0.49236842123615
C         5.72563725961043    1.96392186390600   -0.02936760771561
H         5.94607070538290    1.96184367103111   -1.08405141696567
C         4.45989700250153    2.30603515015837    0.42218777079811
C         4.22978763208788    2.28694511102555    1.79655185862020
C         3.34184437270888    2.78440097829646   -0.48596307835836
C         3.37465955916339    4.32748029288078   -0.48743749950363
H         2.56492624749826    4.71808087673915   -1.10038160200671
H         4.32275610680067    4.68091091751176   -0.88788796033276
H         3.26024176771585    4.71737710592609    0.52231370016508
C         3.50260678701576    2.28255387170982   -1.92096481996254
H         3.48867909300193    1.19545070225742   -1.95214995388695
H         4.43705416370407    2.63830141702839   -2.34600949314947
H         2.70269227686649    2.66603700875504   -2.54819673072040
C         2.02148843653580    2.35985836051019    0.12934886662266
C         0.88071082263436    2.06552460087118   -0.60267063214167
H         0.91202033372700    2.05030893665976   -1.67960491952121
C        -0.31817968986726    1.79920286091119    0.03431994793896
H        -1.19703883769945    1.57953647879996   -0.55341068371924
C        -0.40702949470820    1.82446775022068    1.41370969068503
H        -1.35856428957182    1.62429834844926    1.87910204256312
C         0.71785772332831    2.09359601953565    2.18353741600009
C         1.92057670710657    2.35466050809381    1.51772022783539
C         0.53765369588410    4.00337505825960    4.16460946129401
H         1.29779784782047    4.40486503098342    3.47848888902243
C         0.84184855833353    4.52057529227893    5.56617436225243
H         0.94652168118874    5.60486727564297    5.55163429661464
H         1.76872914102389    4.09115852625215    5.94330224869513
H         0.04652920996315    4.26824716770703    6.26245193456353
C        -0.82681802468139    4.48518767299545    3.68388956153572
H        -1.61488386361699    4.18677434723702    4.37107751763239
H        -1.05489859185506    4.10015978834197    2.69158675820003
H        -0.82571494580697    5.57345720350495    3.63194560606762
C        -0.84713429778338    1.39854143122852    4.48388392388207
H        -1.64331947592552    1.91779457680925    3.94087244640885
C        -0.84279058024516   -0.08138374037588    4.10849290470471
H        -0.10207903109231   -0.61034261014961    4.71011096568645
H        -0.59419166739658   -0.23311706612877    3.05944404538737
H        -1.81962133577686   -0.52259595213388    4.30095613547903
C        -1.08064587230022    1.54484843859300    5.98361978987321
H        -1.93349701334007    0.94126863673377    6.29045775989390
H        -1.28016895817393    2.57654186478016    6.26212402428719
H        -0.20158582332643    1.19828720976790    6.53198567944689

