112
CSD_code = HISLON | q = 0 | S = 0 | Stoichiometry = C41H63BO4OsP2 | MND = 6
Os        2.64299027394884    5.70261489405795   13.76494174616228
H         1.55625986040221    5.09688682120051   12.84318446875142
P         4.50042939266413    6.14683734513498   15.45419219960955
P         3.72850940369945    6.16563458975232   11.53445132496739
O         3.73822767984850    3.86361829673843   13.65931234492615
O         1.20692340880665    8.37491255116139   13.66878062185979
O         0.43113250653379    5.00886271761429   15.68533167634139
O         6.05656555166604    5.93453685842590   13.14419222260537
B         3.51355503467268    2.58820167780337   13.67769244922027
C         1.81350179717693    7.38720287803136   13.72269707685304
C         1.38000588528685    5.22833075643542   15.06801578412344
C         4.73864172171038    1.54400989626491   13.38923842475106
H         4.38449158548130    0.50943561958578   13.45382078768294
C         5.29622885693499    1.75496323426724   11.97885344194391
H         4.50223051667221    1.58614108817951   11.24647480581630
H         5.62488422261496    2.79190497810636   11.87777926096829
C         6.46995351182134    0.82484671334340   11.68603360855042
H         6.12952184116225   -0.21300407916382   11.72186183984059
H         6.85639582400507    1.01722262267095   10.68059602189251
C         7.57467957796149    1.02976259593686   12.71604301337060
H         8.41702838853519    0.36382608223692   12.50704249010817
H         7.93060117016820    2.06093006051293   12.65019070491744
C         7.04014119865431    0.78162466917470   14.12185894105633
H         7.83360035854373    0.94487185760740   14.85738320391631
H         6.71219274268654   -0.25738216525088   14.20664878985755
C         5.86558766696626    1.71208203476143   14.41004050261977
H         5.48015537437740    1.51857485230037   15.41504218484435
H         6.21370294824890    2.74541809608489   14.38237758022518
C         2.04113854897998    1.95241209609893   13.97952279390614
H         1.33448402469605    2.78462331124293   14.12412744403705
C         1.51121987864835    1.10344310218643   12.81990395072708
H         1.50732118760301    1.69252198553501   11.89996867720049
H         2.17598699348210    0.25097012006491   12.66150816460823
C         0.10087476744751    0.59395683545415   13.10693899075910
H        -0.57465765583637    1.44630231353491   13.21500367003985
H        -0.25678445651653   -0.01279269248180   12.27013538030855
C         0.08140707615247   -0.22987273305546   14.39024704785278
H        -0.93557365942248   -0.57075785342806   14.60258807842539
H         0.71020569266346   -1.11462726686413   14.26047835768461
C         0.61123458735156    0.59701400914581   15.55698627443849
H         0.61660319405393   -0.00707272509698   16.46884099362385
H        -0.05057521131556    1.45044624545701   15.72480188647279
C         2.01919538276529    1.10484499240806   15.25559250271788
H         2.69172180498514    0.25208545322370   15.13485309712640
H         2.38413288550827    1.69349557510603   16.10067807304435
C         3.94178924882091    5.68602427391396   17.17769138577709
H         4.78954881228503    5.83259280394898   17.85531122579109
C         2.78720173551886    6.56332785258136   17.65895018898465
H         2.07998621768745    6.76291346781081   16.85381021988506
H         3.14619598537593    7.51572403946230   18.04198430565670
H         2.25015860192375    6.06307912223914   18.46314020288224
C         3.54953966801757    4.20934303916319   17.18598474544486
H         3.36105613176167    3.87182403301151   18.20469935132573
H         4.32829953966846    3.58698211996280   16.74838841171733
H         2.64702499362620    4.05168356000276   16.60082834389195
C         5.25157131408708    7.86336232796159   15.69150229309906
H         5.92563006762545    7.95796079221367   14.82906263562116
C         6.09815725956606    8.01940974327837   16.95105594940527
H         6.63619327352416    8.96569728309853   16.90658574192965
H         6.83121895360807    7.21975642570502   17.04090929638417
H         5.47947792310853    8.03394988917988   17.84466755455259
C         4.21066197670774    8.97449343188230   15.60418872326382
H         3.59565053516914    9.01054250496876   16.49850609054089
H         3.55288923023786    8.82965452321094   14.74958593011580
H         4.70427544916965    9.93973297213652   15.49626502070037
C         6.11285607483222    5.28174830257681   15.39277284438280
C         6.77082730097891    4.64318292307061   16.43718897129058
H         6.31155651303070    4.54111215205972   17.40632916538473
C         8.03069603066779    4.10561083709693   16.24417563208656
H         8.52128839969201    3.59466415958535   17.05889887022667
C         8.67871630846164    4.23505189123131   15.02872699316477
H         9.67077002827325    3.83005891230103   14.91475660207391
C         8.06010060931552    4.88240031402680   13.97129472854328
C         6.76568620792081    5.36124973514526   14.16329973008860
C         6.35589855406991    5.46010499641892   11.89683917604582
C         7.63500019760109    4.99672313402325   11.58817875250393
C         8.71223304292000    5.18307370514152   12.63760979695531
C         9.11534849118035    6.67382426396609   12.64033255950103
H         9.53681946125937    6.94768925060653   11.67501093887117
H         9.85946081893324    6.85634257707874   13.41308953597947
H         8.25700526221867    7.31358476065271   12.83489015684051
C         9.96384096475061    4.34858221242663   12.37490540371759
H         9.73438599895773    3.28586438617860   12.35923808317901
H        10.70689166996147    4.53744230203680   13.14568105177759
H        10.40769516417202    4.62840731912194   11.42270255673258
C         7.84878792259148    4.45435740373377   10.33142630606739
H         8.81718430126125    4.06465304829526   10.06412629442583
C         6.82321907743687    4.41094436796670    9.40398060846916
H         7.00283550294757    3.98524397411242    8.42825284916798
C         5.57417609204269    4.91959841574111    9.70773330930194
H         4.80521773454018    4.87988336754690    8.95445430583428
C         5.31527637938781    5.44937877283399   10.96705751054446
C         2.58361451814854    5.63052750113559   10.15544275680455
H         3.08362997930264    5.86201261923830    9.20930821260113
C         2.34201913403724    4.12555722841260   10.22983422535135
H         1.76365794334048    3.88220573668079   11.11809301694786
H         3.28000575773397    3.57597920914911   10.28621484459538
H         1.78902956888903    3.78734347134713    9.35420336450147
C         1.26262649676830    6.39433734463926   10.18731883815730
H         0.59549680507216    6.00009708070535    9.42247642071019
H         1.40657339574516    7.45493253006293    9.99575037212215
H         0.77529343172781    6.28311398716943   11.15454273239991
C         4.00933521290814    7.96535222072670   11.04520827897469
H         3.06365862614973    8.46508260051574   11.29050091045477
C         5.10735960725621    8.57635618584641   11.90799288525739
H         6.08138835641032    8.18517011302045   11.61808512774087
H         4.93464394381656    8.34866553485248   12.95586295639084
H         5.12655205520534    9.65887155731895   11.78782691898022
C         4.33396115858978    8.18914481285766    9.57128692443676
H         4.59968915754203    9.23479884491780    9.42012918754265
H         3.48871368887772    7.96978400783784    8.92562421257701
H         5.18197679317564    7.57937541157184    9.26347456261381

