84
CSD_code = HISNED | q = 0 | S = 0 | Stoichiometry = C38H31F6N3O3OsP2 | MND = 6
Os       -3.33622898182694    8.33227802760113    3.78188167132350
P        -4.74656122387405    9.93272500909280    4.82474014486187
P        -1.54155589228847    9.69683857549142    3.23016773989615
O        -4.52209874675556    8.54283094016340    1.01153774467543
O        -4.68232794772798    6.76140235762144    4.52417397570053
O        -6.29927458529341    7.34453414921838    3.11276768673743
N        -2.27782410322373    6.58859107193088    3.22338153029876
N        -2.30990883236806    7.93326478979132    5.48962754339920
N        -2.16356103354195    8.52553367864400    6.64894618834074
C        -4.17005712490407    8.48386673992641    2.10326571246254
C        -5.81181802670778    6.66736503463406    4.00026495675550
C        -6.65945201157541    5.48147745396211    4.57518935656396
C        -2.33156993502963    5.94570583966264    2.06079581685826
H        -2.83842138736519    6.44976206760258    1.24947297673511
C        -1.77254020387905    4.69796434701573    1.86474713558556
H        -1.84694218039800    4.22087605059769    0.90136286502891
C        -1.12653216127487    4.07784261664942    2.92739503980142
H        -0.68261655815106    3.10135264539575    2.80818915937429
C        -1.07098027547568    4.73241893090389    4.13865915863535
H        -0.59134064896206    4.28971729822052    4.99653131018723
C        -1.66239236407891    5.99079647607819    4.26219654849877
C        -1.65043108788145    6.75255747400153    5.48022752441612
C        -1.04365411351980    6.57602454163350    6.72761760268066
H        -0.44577377454634    5.76212513495491    7.08078449349138
C        -1.40499775965671    7.72602972779390    7.42068369330893
C        -1.03178686430283    8.14195258243306    8.79211270900369
C        -3.95080636672990   11.03826727867216    6.04899852072599
H        -3.36264122177476   11.79363375218592    5.53235128906056
H        -3.28778052421943   10.43138225734338    6.66418112750918
H        -4.70928018370366   11.50826388612757    6.67412151860914
C        -5.74739216073716   11.06857136625051    3.80209902470387
C        -6.52038674078908   10.51746705785437    2.77901014489631
H        -6.52498770923992    9.44690523863759    2.63536141647153
C        -7.28177832959168   11.33116848858950    1.96069332747361
H        -7.87835834900876   10.89105176771182    1.17589706964478
C        -7.27665928334516   12.70461307168136    2.14523966007500
H        -7.86749321978116   13.34143862645532    1.50339149467450
C        -6.51236161189534   13.25779355503616    3.15796725100738
H        -6.50747128137064   14.32764277316744    3.30904782564403
C        -5.75186106760468   12.44772562761711    3.98426325183057
H        -5.16707426338397   12.90339116165992    4.76751769036540
C        -5.98224123014375    9.10628978249093    5.88052217055488
C        -5.50634403185635    8.42335678083846    6.99844692930518
H        -4.45023344063266    8.43227335596277    7.22474416980179
C        -6.37920094427038    7.72479025181695    7.80985095315382
H        -6.00139471054521    7.19174758677422    8.66930201077177
C        -7.73224044301142    7.69570549026597    7.51148618305886
H        -8.41204942246298    7.13649380297899    8.13661143515028
C        -8.20901879613140    8.37569797172871    6.40423693922092
H        -9.26137387618513    8.34990982836729    6.16417803022491
C        -7.34025449707635    9.07882357331121    5.58697116974191
H        -7.72258685449088    9.59599119605232    4.72004501962720
C        -0.70279928360355   10.67097239382608    4.54251131124748
H        -0.71365309375060   10.13049278891407    5.48679993392056
H        -1.24574088914163   11.60572811759272    4.67108713246154
H         0.32135619567084   10.88911711730704    4.23939476565661
C        -1.67124570148636   10.97891012858458    1.93988080388380
C        -2.91846514837800   11.52667372841691    1.66783648331516
H        -3.78480872734549   11.13862003102527    2.18755296967260
C        -3.04347928034518   12.54759765077327    0.74269193262423
H        -4.01665812980700   12.96710861063020    0.53646689787303
C        -1.92122134802928   13.02372564779539    0.08468820244010
H        -2.01572591963330   13.81780805272649   -0.64075477919797
C        -0.67420154967040   12.48181229677575    0.35565847300502
H         0.19971206926168   12.85504329721696   -0.15764059038099
C        -0.54457386487553   11.46465459094657    1.28342175461248
H         0.42704380625996   11.03867900032327    1.49304620369776
C        -0.20967192296112    8.62374306574308    2.60611800666608
C        -0.25958456194583    8.20502618363716    1.27794807739849
H        -1.01284994608397    8.62304380113489    0.62321237523123
C         0.64336539993356    7.27047522598788    0.80888836991735
H         0.60581516241424    6.95472579165668   -0.22311064829956
C         1.59017083955361    6.72999475597476    1.66542112746074
H         2.28987647495469    5.99295262557719    1.30100385813515
C         1.63594224353159    7.13249285976461    2.98951091825810
H         2.37016011898190    6.70811671807600    3.65825153124548
C         0.73871095357501    8.07425648333560    3.46239672617874
H         0.77321907275010    8.37636231038051    4.49927731914330
F        -7.97462983493417    5.72575671239277    4.54600414262596
F        -6.45565322361488    4.35734232237602    3.86070633468953
F        -6.34535369778341    5.18660982986522    5.84455478884010
F        -2.08663627613313    8.48281093444094    9.55358507071216
F        -0.21603716132987    9.22408662656957    8.79697605954265
F        -0.37166439129219    7.18083120953849    9.45815854000032

