83
CSD_code = HISQIK | q = 0 | S = 0 | Stoichiometry = C40H30MoO10P2 | MND = 6
C         8.12641285573095    0.86803579348937   -1.71221781291508
C        10.34593884041209    0.58761825810791   -0.08019627756756
C         7.19041886612473    3.53746790357157   -0.64714648275797
C         6.00858418198766    2.83580312430789   -0.82868051122737
H         5.68909908994412    2.13144067263547   -0.07457321975802
C         5.25212796180853    3.05248657330134   -1.96767248150229
H         4.33575483433369    2.49943826327592   -2.10993656605406
C         5.66942549775721    3.96632064485873   -2.91911586473456
H         5.08002993855384    4.12824838110423   -3.80878444482142
C         6.84620831359773    4.67180834385883   -2.72832198712562
H         7.17630162074746    5.38510583201362   -3.46839018814971
C         7.61038068248723    4.46139725634550   -1.59553890797760
H         8.53497178566968    4.99408207595463   -1.43465034232302
C         9.46648814754836    3.09059320541614    3.24930195786548
C         8.69300846833797    4.22880315316857    3.41039348485002
H         7.99521708880591    4.51313921181563    2.63870232938250
C         8.83124432595571    4.98870121613199    4.55978677175284
H         8.22652767447988    5.87444033499925    4.68483524705974
C         9.73549204168886    4.62169221765489    5.54084248955172
H         9.83843225663511    5.21919435691227    6.43395482896909
C        10.50956988074844    3.48517060974938    5.37262614634211
H        11.21766885156164    3.19282416950699    6.13344613535829
C        10.37573282389299    2.71563254818578    4.23205378859357
H        10.96574982663135    1.82378621978359    4.08273587324949
C         6.36854969035413    1.07392619010823    2.97224158955274
C         7.12490882827201    0.51882100090020    3.99336004048739
H         8.11499367768626    0.90203246218848    4.19370152403296
C         6.59891413681818   -0.51482372770105    4.74833319629179
H         7.19370028221404   -0.95262930585798    5.53539825353810
C         5.32361515290998   -0.98796452942949    4.49218158725128
H         4.92006399535805   -1.79920701653408    5.07899681043950
C         4.56471696143384   -0.41675107214832    3.48485816767833
H         3.56751439907781   -0.77795098138967    3.28413091680768
C         5.08248542245822    0.61511856882139    2.72302236201338
H         4.49837257356586    1.07002265693862    1.93725797262869
Mo        8.48405074576019    0.00042933610728    0.00070451531647
O         7.92314571326493    1.33054525671101   -2.73641566713321
O        11.42733486743913    0.95039367903162   -0.08415221767257
O         7.97297769321724    3.37063871034168    0.47185445436264
O         9.39574826743807    2.27706805051055    2.13256380567861
O         6.85408729011175    2.12605626498722    2.22182167704410
P         8.11736814127723    1.96435214940432    1.22367456692462
C         8.84193118445172   -0.86860384912977    1.71279854404918
C         6.62226065482935   -0.58745167337335    0.08008062436552
C         9.77790271989321   -3.53732905449134    0.64720412360237
C        10.95973007317093   -2.83557754849868    0.82847751106612
H        11.27900522130938   -2.13120446631031    0.07429276588961
C        11.71646951557224   -3.05219271906552    1.96729945182753
H        12.63281219334808   -2.49904064210981    2.10936795246536
C        11.29948804663429   -3.96607854592783    2.91883280146759
H        11.88908069822122   -4.12792435270377    3.80838734401792
C        10.12276689811831   -4.67172870176035    2.72826401731656
H         9.79293758269743   -5.38509953990106    3.46838234882332
C         9.35831251821706   -4.46137994333860    1.59565286741812
H         8.43378480575835   -4.99422685646810    1.43493811083843
C         7.50111989204060   -3.09053396960539   -3.24896795434540
C         8.27439704852331   -4.22886998495474   -3.41014029607418
H         8.97208600305976   -4.51342259821001   -2.63843397199879
C         8.13607952194343   -4.98861516778775   -4.55962452368641
H         8.74061157385029   -5.87447351774672   -4.68472562697792
C         7.23196266178822   -4.62131922806910   -5.54069625240509
H         7.12896760790392   -5.21868699298773   -6.43389130947268
C         6.45807326081581   -3.48468605190160   -5.37238317969227
H         5.75006598920859   -3.19212038675824   -6.13320412220892
C         6.59198307181880   -2.71531199109457   -4.23171416019424
H         6.00212136485837   -1.82337319249131   -4.08233413563662
C        10.59911284083073   -1.07407747505346   -2.97231735959263
C         9.84278978446761   -0.51919999899008   -3.99357587929798
H         8.85273332207499   -0.90248695791419   -4.19390459610534
C        10.36878135377228    0.51434928788291   -4.74868073082655
H         9.77401595828152    0.95199973070450   -5.53584782942723
C        11.64404157275875    0.98759581791207   -4.49253668256946
H        12.04758425743213    1.79875649540380   -5.07947111650196
C        12.40292040363038    0.41658555939304   -3.48508177227592
H        13.40010012476332    0.77785984682029   -3.28436757048835
C        11.88515175808333   -0.61518092182724   -2.72310660480048
H        12.46924630735031   -1.06995670288373   -1.93725146904485
O         9.04609547692801   -1.33127198631465    2.73675526210630
O         5.54110632782506   -0.95096013846191    0.08357752455697
O         8.99505189106727   -3.37056124982863   -0.47161527633834
O         7.57196324414932   -2.27710017631611   -2.13218444641787
O        10.11357245343347   -2.12612040125244   -2.22178356314795
P         8.85044912102134   -1.96428781372766   -1.22345834159448

