80
CSD_code = HISREJ | q = 1 | S = 0 | Stoichiometry = C28H47CrN3P(1+) | MND = 4
Cr        7.32289343571688    5.08967230431522   12.30186670300399
P         6.03238140503429    3.66789282271234   10.32971572669989
N         6.00936079359964    4.06974956574641   11.87032755333674
N         8.46626813702458    4.21317063451583   13.35776385021469
N         6.87206681214434    6.77522180752686   12.43537640270904
C         8.17398521333452    2.96889615821777   14.05314824637932
H         8.96553095884259    2.76435900491866   14.78390615803695
C         8.11660774506116    1.77566108162313   13.09370407810800
H         7.35137529133140    1.94947373434281   12.33589120436620
H         7.85953651547261    0.87667661902103   13.64758385917019
H         9.07690868213457    1.61446360321052   12.60764051229707
C         6.85243187423355    3.08323048281119   14.82187421785096
H         6.87374807977650    3.94501195854737   15.48353433019732
H         6.70231597182227    2.18908318667304   15.42092870125808
H         6.02448757271683    3.19104186737637   14.12436881969869
C         9.69503067596688    4.85854929349577   13.76765053812719
H         9.78854312044787    5.77659958987325   13.16916530112620
C        10.93929137546540    4.00895052049864   13.46203052187327
H        10.95916966493754    3.10071674192221   14.05857567103063
H        11.83272505244690    4.58364169399979   13.69087951604691
H        10.96509382430967    3.73596354814926   12.40875525091433
C         9.67243442804031    5.27515813328192   15.24727107669344
H         8.74199022401397    5.79526891320652   15.47111462563800
H        10.50839712255888    5.93818753250008   15.45421733170366
H         9.75471227187980    4.41516301871185   15.90626730682838
C         5.69604429281577    7.45246189450619   12.92265903685215
H         5.85118451824986    8.53906581568968   12.92287925975882
C         5.42989695979907    6.99077153880703   14.35942937025870
H         5.26694678363471    5.91584948630540   14.36378028023139
H         4.54928980221387    7.48966814662337   14.75316697760024
H         6.27732105270024    7.22695555413868   14.99849242442954
C         4.48836790265181    7.13070077007440   12.04045749193387
H         4.64209153336535    7.49534313052236   11.02679753800502
H         3.59568300119978    7.59778941647807   12.44603347438082
H         4.34348267712001    6.05173226530566   12.01049186503821
C         8.01675590278271    7.56119049376394   12.06226878478450
H         8.79160987554325    6.83583340905554   11.73359728663045
C         8.58438508528063    8.40596341800653   13.21229414732887
H         8.74748757506391    7.79069988968078   14.09491140090273
H         7.90128789532394    9.21093188671845   13.47293473451907
H         9.53070270193272    8.85098595521344   12.91444835826107
C         7.71157337774933    8.45376729561445   10.84741897521832
H         7.27766400119248    7.86116903177165   10.04406800408526
H         8.62517207871299    8.92165115827290   10.48947107619841
H         7.00801136750489    9.23826611344625   11.11643264835645
C         5.14931131402396    2.05352513826023   10.20521790094687
H         5.77771643813529    1.32125660086603   10.72585345981842
H         4.24679571119276    2.18280581285840   10.81437097903644
C         4.80048487918257    1.54402127129413    8.81244758311784
H         5.71570237846137    1.30533762345130    8.26652368442515
H         4.26402434058302    2.31610805057030    8.25498232034636
C         3.93114914057820    0.28845925904567    8.88969303913255
H         4.45745003592666   -0.48076153598357    9.45893114931719
H         3.00513618961852    0.51944947603064    9.42069536976794
C         3.59932898376884   -0.24542180904617    7.50202001824383
H         4.50803579064846   -0.50605241086031    6.96424593821676
H         3.05935116660805    0.50044977349237    6.92315387646235
H         2.97960029381056   -1.13458759341159    7.57690549166171
C         5.07543853679707    4.89554268485497    9.39430203358751
C         3.68682963121790    4.87090574272541    9.43500348603570
H         3.17754354085435    4.08103170516722    9.96779597359739
C         2.96126836379371    5.85942450643872    8.79310535910940
H         1.88268376238121    5.83562287568254    8.81649244575677
C         3.61820775224292    6.87828945282531    8.12221824300891
H         3.05104591094420    7.64765001122089    7.62166331297740
C         5.00421634618847    6.91323466319703    8.09356301194192
H         5.51409769589156    7.70907836485174    7.57114619153072
C         5.73340454121756    5.92641980567800    8.73227556619495
H         6.81684760198723    5.93639736660373    8.70214802645809
C         7.54301121876096    3.42141887395808    9.30317766382790
C         7.40745268911426    3.32096893202877    7.92079667409844
H         6.43683155913879    3.44693946810681    7.46367902113864
C         8.51908793950071    3.08792210979184    7.13095752164704
H         8.40912267886407    3.01880809190373    6.05953851772898
C         9.76928103150578    2.94511106078065    7.71145225624163
H        10.63387486501814    2.76014391729306    7.09321351316522
C         9.90890700787621    3.04702578372940    9.08625221151535
H        10.88340562331223    2.93800236810406    9.53885636430803
C         8.79933567299493    3.28811135062657    9.87767165372162
H         8.89757473461973    3.38426072054412   10.95525950384526

