82
CSD_code = HISRUX | q = 0 | S = 0 | Stoichiometry = C41H35CuO3P2 | MND = 4
Cu        7.11055668247097    1.90646111941505    4.48760458157926
P         7.02498232450089   -0.17548223250893    5.25547924388569
P         4.95307135237543    2.32834350709079    3.30651251501312
O         6.71044489966631    3.61181695964140    5.41977955260225
O         8.36262687284986    2.55934463813812    3.12614247155583
O         5.08395389798332   -0.34405786577767    3.47439488449950
C         9.33226018647964   -0.63538039509316    9.20116819147239
H         9.86756960989680   -0.71623542786331   10.13598525021633
C         8.80888614602806    0.58506246732709    8.80524240215374
H         8.93801702585281    1.45710652490374    9.42951083339657
C         8.12917150811646    0.68526306577153    7.60533217500593
H         7.72897100315079    1.63371402666643    7.26740650865289
C         7.95955021559317   -0.43701849659288    6.79970795075020
C         8.49524126528167   -1.65743376598212    7.19546486715648
H         8.38192938674181   -2.52751469881144    6.56459386344194
C         9.17859912350772   -1.75186239255586    8.39466054379320
H         9.59491508595053   -2.70039519047429    8.70243285528675
C         8.92243713397571   -3.16790071822797    2.33702690594572
H         9.38349179229924   -3.85423827945034    1.64153574333612
C         9.26522712527380   -1.82538878529761    2.31816405551034
H         9.99069555932850   -1.46380974337772    1.60418517324989
C         8.67160978418351   -0.94835404892741    3.20743764565027
H         8.90433639520450    0.10878644910619    3.19276275583934
C         7.73782994236733   -1.41512454648313    4.12649146431184
C         7.38393606998434   -2.76008612836902    4.13447154762962
H         6.63742534711277   -3.12048119667566    4.83018406085436
C         7.97941643724821   -3.63158668002017    3.24008133180781
H         7.70581581699617   -4.67734396146450    3.24600763708186
C         2.83196469248109   -1.86096749554303    5.95011337597682
H         1.81871706869655   -2.21496544878792    6.06663411278159
C         3.70362669398521   -1.89571562936490    7.02409980677842
H         3.36914488715397   -2.27905494266363    7.97620807078809
C         5.00281287277201   -1.43091793299952    6.88659534144689
H         5.68228944753325   -1.43987217582471    7.72664074166941
C         5.42967367351310   -0.94985908853352    5.66127347599695
C         4.53492307448281   -0.90911871687846    4.58278724032149
C         3.23675809451654   -1.36366102815621    4.71992546353140
H         2.54514495520605   -1.30900728931815    3.89226458667528
C         1.75301645045366    1.58486780709510    6.53569010429076
H         1.01185631563474    1.37803665318608    7.29396946717241
C         3.08807004197608    1.70112989305099    6.88234199803756
H         3.39197017114017    1.58659637079635    7.91256560966796
C         4.03685221700328    1.95515147518048    5.90810498888194
H         5.08220637658405    2.05674002165288    6.16735269996144
C         3.65588756397609    2.09308136050097    4.57903158076937
C         2.31080700781994    1.98847770154891    4.23675276089812
H         2.00640414314924    2.10433270442597    3.20504210405178
C         1.36580798053180    1.73737013328136    5.21397672092602
H         0.32264712021253    1.65662367294964    4.94329945505015
C         3.20425769036421   -0.71099464400719    0.34038476259560
H         2.81207455479931   -1.47310906927874   -0.31610561751776
C         3.85624448209156   -1.08197121692422    1.50755648917029
H         3.99193252159331   -2.12216327790298    1.76540690283393
C         4.34591586512680   -0.09134168680094    2.33727662867639
C         4.19599613714774    1.26352648449711    2.02472737967823
C         3.56069178679251    1.61640518424847    0.84400696067070
H         3.44366458153284    2.65878880802811    0.58417156870395
C         3.06267358797579    0.62681217333670    0.01145619350041
H         2.55654604420606    0.90284817524116   -0.90192723988646
C         4.40474616958967    6.61658888986728    1.77823741846335
H         4.32671458461778    7.63474883788436    1.42540443876169
C         3.78382495057588    6.24180787870296    2.95796928897035
H         3.22284959796341    6.96995039477992    3.52696201444523
C         3.88387073927051    4.94058416504983    3.41783020660715
H         3.41209306360262    4.65398480001225    4.34724016427921
C         4.59998490579152    3.99900126729415    2.68759341227773
C         5.24697385808072    4.38912470572151    1.51521647478292
H         5.84142196562725    3.66200080994251    0.97620588075169
C         5.13960858386040    5.68712438649216    1.05752400836571
H         5.63634631176176    5.98249965959230    0.14413317285283
C         6.64906173631901    5.97404770873652    5.53528209117189
H         5.99258724290436    5.74863810344181    6.37195760317555
H         6.11583959804198    6.58722564706874    4.81187867671282
H         7.50993792268463    6.53480188556493    5.89386001030009
C         7.10394159370751    4.68333986407552    4.88221742760490
C         7.91365150621970    4.81853649899970    3.75364243817961
H         8.13406547166722    5.83123330047928    3.44774133139645
C         8.47943830279840    3.80443108986286    2.97399625869024
C         9.34154606530963    4.26626719418881    1.81410295313233
H         9.68889102851304    3.40429327896044    1.24992347416737
H        10.20025995390587    4.82187917612976    2.18577426901139
H         8.76719875633424    4.92111727743787    1.16211623998043

