29
CSD_code = HISSUY | q = 0 | S = 0 | Stoichiometry = C10H8N4O6Pd | MND = 4
Pd        3.38956069355201    2.49821415355434   18.02917507780000
O         3.52264118866755    2.54951185947601   20.10005001913468
O         2.87460685462342    0.56620891387197   19.63023939450244
O         3.01822885705550    1.19398000253454   21.67299164515234
O         1.41264399580825    3.08455986330854   18.24007718639872
O         0.42973002555128    4.94934451141200   18.59035489301865
O         2.53552384417021    4.90411893348605   18.20073820125700
N         3.31186223275503    2.27709618660871   16.09646748170866
N         5.26508037213822    2.06788667722915   17.73906745966229
N         3.11140037904270    1.40551006365688   20.49863462761183
N         1.44563891210870    4.35782886270201   18.36597057301637
C         2.21287259835626    2.37786438176078   15.35366349754451
H         1.29878766032562    2.63969346557495   15.87563141124605
C         2.22187449203921    2.15113823354597   13.98799133445767
H         1.31053989765615    2.24529389183742   13.42067082557317
C         3.41717579299861    1.80289433193142   13.37356340825829
H         3.45818353469322    1.62168296064123   12.31098925447463
C         4.55760343000346    1.68406642569214   14.14812799829031
H         5.49470722699890    1.40364928722704   13.69616574436967
C         4.48101382693508    1.92552388212076   15.51810099422640
C         5.60132109164752    1.82884705996287   16.45283894834965
C         6.91577102313754    1.53027860609366   16.10057439838105
H         7.17396815843155    1.33838896177786   15.07218675884054
C         7.88811748272488    1.48584827715913   17.08407359866176
H         8.91031926227391    1.25286986566658   16.83027323624531
C         7.52697384655749    1.75337827228284   18.39767947418561
H         8.25694714221952    1.73900610052227   19.19025063301945
C         6.20308237573802    2.04149139302194   18.68196885223953
H         5.87942380173656    2.26702457533069   19.69248307240919

