49
CSD_code = HISSAE | q = 0 | S = 0 | Stoichiometry = C16H18CdN4O10 | MND = 8
Cd        6.27448145600520    0.28964704261052    3.58846589645239
O         4.92225030740790   -0.81175269147128    1.86198545100636
O         5.28150823955096   -0.32571075774545   -0.29174021905554
O         4.41327887251033    1.31291786039627    3.86203987663955
O         5.96043066092506    1.50303952150339    5.31041482469229
O         3.92954597577799    1.62818931270943    5.90127949965110
N         7.54930771252183   -1.16388540648182    2.25502703114201
N         4.75214996740571    1.48734022080309    5.03199738788535
C         8.82909979976738   -1.42912614150137    2.45911526904719
H         9.13295286493707   -1.48277724549495    3.49491044654024
C         9.73223544094284   -1.59509568368173    1.41671250251201
H        10.77146683602042   -1.78986707627982    1.62818099000757
C         9.28049520262717   -1.47520752605138    0.11296352392667
H         9.96114481398479   -1.57376440584637   -0.71896419786373
C         7.93792602848655   -1.20829716246789   -0.10703212625603
H         7.53374296451436   -1.09381779949747   -1.09933633697406
C         7.11197748148815   -1.05918772638022    0.99846144185864
C         5.66297039150238   -0.71516534484891    0.90298548695671
C         3.94595692907193    0.19159555563122   -0.39449883059119
H         3.24942432776654   -0.65327216618305   -0.43775393513340
H         3.73747787564057    0.77577366413295    0.50834184914280
C         3.86469393171644    1.04505437736603   -1.64540811510365
H         4.58069013902097    1.85928203904414   -1.58117243444932
H         2.86480004748481    1.45824105325528   -1.73897144761962
H         4.08797222471408    0.44985288629897   -2.52709010496389
O         7.62749566783608   -0.81307673370492    5.31498621558359
O         7.26747656477781   -0.32543855074416    7.46824676438507
O         8.13607228295215    1.31316309285376    3.31467645790041
O         6.58863483891256    1.50251153582612    1.86648862725073
O         8.61941561370413    1.62700871937331    1.27513938398097
N         5.00008277275702   -1.16468217552949    4.92143458579213
N         7.79698846075763    1.48729776861648    2.14479431286319
C         3.72012911880322   -1.42918530203770    4.71738161687717
H         3.41628496118530   -1.48300186515355    3.68159439762765
C         2.81688332208190   -1.59453167270107    5.75976662606839
H         1.77761404932662   -1.78910945123881    5.54829228010473
C         3.26869054195037   -1.47479489198406    7.06350182904100
H         2.58800679233368   -1.57313937225687    7.89543395243528
C         4.61140951451061   -1.20864584811406    7.28346931045564
H         5.01556992569530   -1.09405940269867    8.27577639954016
C         5.43743767866106   -1.05989053330508    6.17797116309010
C         6.88627864346718   -0.71491020468879    6.27341102985912
C         8.60332367960706    0.19097533993379    7.57134002591085
H         9.29942164879945   -0.65425192142266    7.61491412343040
H         8.81228697781186    0.77494537736237    6.66847925769652
C         8.68480499525062    1.04476860571855    8.82198670822567
H         7.96898403708862    1.85913254581765    8.75749929368300
H         9.68479671817576    1.45777521070629    8.91538502330670
H         8.46143070184573    0.44983332957508    9.70381688559195

