77
CSD_code = HISWOV | q = 0 | S = 0 | Stoichiometry = C32H40N2Si2Zr | MND = 13
Zr       -0.05741765903333   13.33292898970173   23.43230782698709
Si        2.64270832102768   14.80098786818785   27.26715746889690
Si       -0.26125732220813   12.53362985735691   26.91245521034712
N         1.63104451044365   14.96192966140476   22.12452875345163
N         1.26285825900933   14.82723405974807   23.37355806903367
C         0.57352659346855   10.92235028173168   23.79452320839241
C        -0.17781054234148   10.98071923786791   22.60132175214580
C         0.58631176097104   11.68364447080106   21.64106102588029
C         1.81273365405198   12.03976743548838   22.23699838420050
C         1.80236144507716   11.58486644400841   23.56857886554585
C        -2.55361164506259   13.27683286566641   23.14698722798842
C        -2.07239369473187   13.35990889144200   21.82577613239499
C        -1.43147045279574   14.60385771691453   21.66727740448611
C        -1.53369536723647   15.30607485231896   22.88285306237895
C        -2.20959944755416   14.48121090400639   23.81271972470907
C         2.92982283401115   15.62640541620404   20.26119407394231
C         2.15278828394497   14.88193144193517   19.36577162314440
C         2.43517828232851   14.88673721280055   18.01656831070664
C         3.49879585140450   15.63056018906693   17.52582323765314
C         4.27746042171716   16.37052917902673   18.40068377435776
C         3.99847918954767   16.36960920391333   19.75317800445009
C         1.63940599848577   16.70965993845765   24.83542582653340
C         0.34777980929661   16.97140431780469   25.28496320956984
C        -0.06216560957355   18.26938896569764   25.52304291888287
C         0.81339336266859   19.32476523134069   25.31979608087499
C         2.09872697549737   19.07230132660430   24.87439487270692
C         2.50826925813430   17.77235259760720   24.63031647751600
C         3.01431269338676   13.28595031712291   28.36708899540498
C         1.80663898977680   16.17288141537639   28.30614664530091
C         4.36859533654060   15.45341176022646   26.75237357601088
C         0.69431954675004   10.94038296146091   27.42674277035019
C        -1.91263499620536   11.89786684956536   26.14499400231698
C        -0.82370750565842   13.43594656553329   28.51083034031872
C         0.53629786466030   13.58362771977911   25.56879803954937
C         1.59863085952632   14.39871518020077   25.72246679525144
C         2.01934222038269   15.27623753714546   24.53776821526032
C         2.64836256457303   15.61984565935796   21.67625145837726
H         0.33495519989751   10.32899443289905   24.66630983194966
H        -1.10044038048487   10.44306704199396   22.40892954248056
H         0.34420214336095   11.79201905698170   20.58974784557970
H         2.65342351808076   12.49220280672717   21.72641088853698
H         2.63254438036535   11.63207549751255   24.26310199155081
H        -3.22705607117589   12.51500487821510   23.52100838755248
H        -2.28271995669586   12.65200600481216   21.03317667956468
H        -1.03728614142299   15.00554361376656   20.74256010898431
H        -1.23300798014055   16.33375680454451   23.04235181583824
H        -2.56616817884871   14.79232243618884   24.78891056513966
H         1.32985124277395   14.30203332814456   19.76103343752469
H         1.82754418828061   14.30677689023948   17.33594274542147
H         3.71932781436920   15.63158160896368   16.46849553157493
H         5.10767921935351   16.95101406273218   18.02372662610625
H         4.60994487429779   16.94952605584039   20.43082953450588
H        -0.32126424518597   16.13473074135234   25.45705327014004
H        -1.06610075605819   18.46227885677513   25.87262273582376
H         0.49487697243768   20.33918034291983   25.50873199550981
H         2.78612688608095   19.89019607305120   24.71428496474734
H         3.51422468687721   17.59026692152542   24.27809723277181
H         3.38301064140736   12.44567374462479   27.78921004825841
H         2.14192844473932   12.95225866583321   28.91254766969043
H         3.77767289756373   13.54072709780792   29.09584328947069
H         1.85983365038019   17.13356533964702   27.80299478390553
H         2.29487017254106   16.27791219160738   29.27041602171215
H         0.75920560377938   15.95889573370587   28.48729458320847
H         4.30419480783481   16.42843164989402   26.28173731669695
H         4.87291709929201   14.78066308835486   26.06465894044350
H         5.00779952369706   15.55937277361437   27.62407388550550
H         1.62096924219573   10.83457464730619   26.87209957216978
H         0.10000811618064   10.04873935254172   27.24813481938224
H         0.94698887080129   10.94943354402068   28.48123901152447
H        -1.76416440902846   11.49097786600652   25.14272625148914
H        -2.65767271224958   12.68692664458736   26.08971791923587
H        -2.33989031330782   11.10758739877868   26.75635371742716
H         0.01411339647955   13.71654913346732   29.13796499341164
H        -1.48121830212627   12.80395163559627   29.10035951438941
H        -1.37124835550171   14.34282193142822   28.27256661918347
H         3.10328179101443   15.19789439015827   24.35760056296395
H         3.32796177388889   16.17971119294202   22.32011138327124

