49
CSD_code = HISXUC | q = 0 | S = 0 | Stoichiometry = C19H24ClIrO3S | MND = 8
Ir        2.78630004950479   13.92413662805241   13.80737943339923
Cl        4.33317120182119   12.61411206600014   14.93952440469891
O         3.30084319411402   15.49055048641463   15.10092695823722
C         4.32568427158113   16.24932708091062   15.05024243002546
O         4.45673804173025   17.27267383556726   15.68210950123342
C         5.46485985417820   15.77341866390151   14.09709534128591
C         6.34646752755221   16.89670294668723   13.60679206925425
S         4.59219573442073   14.93962816125620   12.73108184463975
O         4.09830580976967   15.95261437064727   11.80297551801555
C         5.98255035026768   14.15131055438803   11.89160641803777
C         6.45095816509898   14.72993650995130   10.72593081508369
C         7.54011564578849   14.16879670185120   10.08221397625177
C         8.14093489307908   13.03450990748302   10.60450201458320
C         7.65192326339831   12.45581776426340   11.76556798642508
C         6.56373442849126   13.01086430331812   12.41860787333542
C         1.43955423427881   12.34640388583603   13.08296219607110
C         0.85801460955231   12.99219004822969   14.24420510653369
C         0.55468998533204   14.35527057608749   13.88602739138176
C         1.03486136772928   14.58083960982655   12.57323319246066
C         1.57510300077939   13.33767837500424   12.07058810501989
C         1.69787294158187   10.87881582645457   12.96481676508645
C         0.39240170631864   12.28493823843360   15.47661215266179
C        -0.09672386999385   15.35519042047839   14.77636577048255
C         0.92386896803312   15.83040785715797   11.77235387801426
C         2.05828891258956   13.14765549520713   10.67154179539998
H         6.01598539075750   14.97936476219355   14.60589625546780
H         7.29462488856483   16.52530587469968   13.22305051348181
H         6.52779358917379   17.58503791595719   14.43081503468354
H         5.82773643417872   17.44046606854965   12.81815196651493
H         5.95786036349337   15.61076693380020   10.34446596675471
H         7.91859028903918   14.61747847897892    9.17613147151121
H         8.99172605696180   12.59826692378648   10.10269465529085
H         8.11781424790069   11.56910262820629   12.16722601876755
H         6.16599531473862   12.56643527157095   13.31854315780502
H         2.35617510426409   10.54103084278748   13.76323497236563
H         2.16248580416378   10.63999884841820   12.01254621397344
H         0.75687555278728   10.33391200695736   13.04311673671760
H         1.02039670460679   11.42151566619810   15.67998232975521
H        -0.63520914617992   11.94249747977236   15.33974176717985
H         0.42774466968222   12.94763203919272   16.33744764066590
H        -0.67528485821236   16.06922101703456   14.19478970760776
H         0.66597225675559   15.90541538736740   15.32955162559099
H        -0.75130565005554   14.86464601118739   15.49211838707821
H         0.44780506469915   16.62038520687281   12.34539549079423
H         0.34959296129209   15.64960222415524   10.86363581869288
H         1.91698909032028   16.17483896182453   11.48194001685605
H         2.59665976808326   14.03149847422474   10.33506251873278
H         1.20639369428313   12.99560505385820   10.00687860188650
H         2.71636812169674   12.28588560900237   10.59212019421555

