49
CSD_code = HISXOW | q = 0 | S = 0 | Stoichiometry = C19H24ClO3RhS | MND = 8
Rh        6.71317615170941    7.49589950461495   13.68949700993362
Cl        5.25835928908119    8.73897983180028   14.97117392505730
O         6.29097581447591    5.86829646688254   14.92629873260265
C         5.21978190127529    5.17499854071173   14.93722546228000
O         5.06110948267075    4.16400109364023   15.58276111349382
C         4.06455239728170    5.71413959148450   14.04013880395549
C         3.13195762205633    4.63342948740606   13.54961528788239
S         4.92949590283087    6.54925646767191   12.67372848063962
O         5.36466962795797    5.54561906631044   11.71057855688427
C         3.56416772967743    7.41814596442874   11.87511647430509
C         3.03127033981605    6.86294594983069   10.72545578451985
C         1.96184454430636    7.48539726609232   10.10558093212662
C         1.44401429300374    8.65699056417810   10.63445572869309
C         1.99582784910055    9.21059404110619   11.77942431468702
C         3.06469282276194    8.59370075126308   12.40841756262680
C         7.92493679511966    9.11962305053974   12.94393738790811
C         8.56293644365421    8.54593390483183   14.11024644375317
C         8.91887858268198    7.19566729709115   13.80085767184724
C         8.44460614963216    6.90277050929890   12.48315900478950
C         7.86391225267101    8.10460763278332   11.94259170902503
C         7.57194358826572   10.56499418405309   12.79607140823503
C         8.94996166848475    9.31102743490218   15.33490083257804
C         9.62380331841684    6.24102994054861   14.70436526283523
C         8.63389971897131    5.63688355421914   11.71620197818450
C         7.37986371639494    8.23953245299055   10.53609527857813
H         3.55515348254380    6.51078296102062   14.58671800242511
H         2.18990283404094    5.04596059639151   13.19375493945337
H         2.94313411896918    3.93853216207038   14.36657653523867
H         3.61372049582689    4.08518765543446   12.74097500893967
H         3.46186683274476    5.95327747278251   10.33630101515138
H         1.53429802596393    7.05549218524288    9.21231599203389
H         0.60920674778295    9.14173329823949   10.15057643079528
H         1.59414087419951   10.12576789676875   12.18671320942753
H         3.50880964055038    9.01507199752710   13.29798976097076
H         6.96938272227197   10.90075502631399   13.63822607225741
H         7.01344931469134   10.74172825525725   11.88094792960970
H         8.48538234159115   11.16035991525590   12.76993777241733
H         8.20288315321021   10.06730702175377   15.56431697904213
H         9.90650892588856    9.81023647308287   15.16843325988536
H         9.04276917366146    8.64993586303806   16.19276608257989
H        10.29767023138364    5.60622470468065   14.13238446375486
H         8.89494414081498    5.60143977673878   15.20676738557320
H        10.19356019290452    6.77447326904062   15.46087680761292
H         9.07730817726685    4.86664823697377   12.34020521570683
H         9.27637466122275    5.81477736783513   10.85300840237208
H         7.67157474843069    5.27158760028312   11.35681330141877
H         6.85302760728339    7.33799939485938   10.22785658184938
H         8.23540591445500    8.37656334112486    9.87272662261794
H         6.71368764018482    9.09149297980787   10.42201708140373

