71
CSD_code = HISZUE | q = 1 | S = 0 | Stoichiometry = C33H30BrMnNO3P2(1+) | MND = 6
Mn        7.80083949612379    3.86956555881229   -4.51711509404903
Br        3.50401334321389    3.20828861409151   -6.43536281763104
C         5.44515405603108    3.26158446113651   -6.13944988073493
C         7.08080678394114    4.66689838069065   -3.09347415109151
O         6.67094860665457    5.28804117872552   -2.22951996759288
C         8.96408332978462    5.22840913816222   -4.53605579421043
O         9.68693025136322    6.11139784680379   -4.50478320961193
C         8.88981524544849    2.87866029677176   -3.49624713370985
O         9.57848924366288    2.27514012858291   -2.81407379977265
C         8.47131014868427    3.17556491625845   -6.09235897383637
N         8.82684953019170    2.74159726735852   -7.10939926735287
C         9.27815196305512    2.22673926109382   -8.34472457876115
C        10.29547855846766    3.21359361549013   -8.92080436335065
C         9.91736793720590    0.86248187098078   -8.07820518906042
C         8.05856191918258    2.09557941299879   -9.26140164323360
P         6.23257207277383    4.89959261237039   -5.76300604636249
P         6.23256929763803    2.26450468812418   -4.78041251354450
C         4.94811959461543    5.90349026123018   -4.99864434699065
C         4.82291814022743    7.25218011627368   -5.32475751925921
C         3.86263904347522    8.01681195130535   -4.68798253888313
C         3.04129520774393    7.44757514438259   -3.72753613476934
C         3.18129577116469    6.11006504503737   -3.38835831580757
C         4.14019876134381    5.33747217757046   -4.01254907033497
C         6.51280781822738    5.63215570826329   -7.38919721488906
C         7.79954844788828    5.99678591653070   -7.77431292683177
C         8.01068419944052    6.54003538070352   -9.02975755026820
C         6.94495739601587    6.71015418819178   -9.89905638041785
C         5.66173654054281    6.34874816326578   -9.51385495032622
C         5.43697190294041    5.81630004330359   -8.25880955198346
C         6.61325845472112    0.67440370112661   -5.56132220793314
C         7.61675612864403   -0.08010577896108   -4.95668113206121
C         7.94831065529803   -1.32238091578445   -5.46347305880979
C         7.27862250639568   -1.81561560738894   -6.57340616010956
C         6.27486742213877   -1.07002456569172   -7.17096381250590
C         5.93505623980363    0.17496417938518   -6.66967461107518
C         4.98853143058247    1.78312393130348   -3.56048999813490
C         5.17294473562469    2.13475005277394   -2.22536054199395
C         4.23684366924636    1.75440740060156   -1.28116375775638
C         3.12550095244180    1.02136223529986   -1.66597932664887
C         2.96005826536196    0.64315215766714   -2.99034131037260
C         3.89384052163540    1.00732532261918   -3.94133637286605
H         5.90030385494706    2.92111226699384   -7.08317781406663
H        11.12643692908337    3.35118797391536   -8.23290979535386
H         9.82925291348936    4.17871052250030   -9.10655990744826
H        10.68279867992838    2.82767004706941   -9.85917753345687
H        10.76522354143756    0.96354483156975   -7.40501010557609
H        10.26605908459360    0.43681469193657   -9.01443910058109
H         9.19701125646862    0.18039726213761   -7.63101249558669
H         7.34383347367018    1.38626789270542   -8.84700736998717
H         8.37515769308237    1.73414074554537  -10.23525191219795
H         7.57117865329113    3.06082701101842   -9.39406495377114
H         5.47080454924561    7.69131481788355   -6.07126256176198
H         3.75756867159244    9.06052568535938   -4.94099952584037
H         2.29303695154145    8.04934468783887   -3.23563691364467
H         2.54658170211159    5.66962648294463   -2.63478950094560
H         4.25937171837451    4.29435442779872   -3.73730157354845
H         8.62546423060234    5.86104080927574   -7.08674762824355
H         9.00533685313151    6.83633708696384   -9.32733971269022
H         7.11237310950656    7.13207773699949  -10.87790653084846
H         4.83345189639111    6.48912353304309  -10.19109072472294
H         4.43465462303318    5.55317383281672   -7.94990418404304
H         8.12961364296631    0.31732766990772   -4.08923918794616
H         8.72646146989825   -1.90516798394774   -4.99541768278090
H         7.53722757866290   -2.78431930301346   -6.97186363585571
H         5.74990479450789   -1.45938138059580   -8.03016516392378
H         5.14170239323546    0.73865479515877   -7.14208901624319
H         6.05265784449888    2.69424135173585   -1.93131599048980
H         4.37704099300795    2.02874249889740   -0.24698301305199
H         2.39222576567017    0.73098261302655   -0.92967997229988
H         2.10357483168700    0.05587709518725   -3.28332205793440
H         3.77498471140918    0.68787483987469   -4.96643122021215

