45
CSD_code = HITBIX | q = 0 | S = 0 | Stoichiometry = C19H16MoN4O5 | MND = 6
C        -0.64093843031671   -0.90256627500374    1.64977572534544
H        -0.90085674189666   -1.67890458019993    0.92875477846882
C         2.70803676976411   -0.96589048001433    1.31522476442954
C         3.81237881334465   -1.62405454751463    0.59397026306335
C         5.11375784148276   -1.51086336218431    1.08163493504478
H         5.30000710075315   -0.95076401669263    1.98653491186654
C         6.13088333259276   -2.14105796788232    0.38319932728343
H         7.15779118584195   -2.08587043576984    0.71981757071426
C         4.69426948380637   -2.94896359714443   -1.17846038929730
H         4.58345597370469   -3.53474592539001   -2.08169602320829
C         3.59680045940947   -2.36644294996940   -0.56556457454358
H         2.59901187324285   -2.47382094714935   -0.95683170992599
C        -1.40714683046263    0.63716336548807    3.44740990448662
C        -1.67703121145411   -0.36071495975667    2.46463825178937
C        -2.99190420745254   -0.82931824770468    2.33585541466024
H        -3.19903096646668   -1.58876375464709    1.59588980145928
C        -4.01488009405000   -0.36146296003445    3.12497431448291
H        -5.00803651807201   -0.75864016716827    2.99429216134998
C        -3.75091450823301    0.61753027622658    4.09312512895143
C        -2.45643065087857    1.10817572905708    4.23512463057608
H        -2.25060287531243    1.85771715035679    4.98466916732981
C        -6.00437810775906    0.67776587370916    4.85884117376006
H        -6.54738634973261    1.23449850124257    5.62072499679591
H        -6.06111369349900   -0.39121263749218    5.08332492407133
H        -6.45481969448207    0.87148812121600    3.88062053237365
C         0.54515947825630    2.70752513459314    1.17795773797145
H        -0.40206745973506    2.18409612625197    1.25230909540591
C         0.61662403494107    3.94208861513392    0.55299470555516
H        -0.27290837513328    4.39412442665549    0.14332212592888
C         1.84619537562013    4.57627117099715    0.47135600015820
H         1.93938506265696    5.54154386426994   -0.00327258938189
C         2.95192161025246    3.93975719205171    1.01248233140676
H         3.92975802380773    4.39269437262230    0.97165023615331
C         2.78357085810591    2.70675196690720    1.62230450855420
H         3.61558341885141    2.18268122829634    2.07620524228020
N         0.59823602526792   -0.54786832640052    1.74593179972706
N         1.48461186601749   -1.18864119042862    0.93454529712857
N         5.93061626493581   -2.84011771851810   -0.72120909775454
N         1.60266190752451    2.10116898389759    1.70865102213194
O         1.33158592110088   -0.98867836334079    4.28211729278595
O         2.39045863581261    1.56592538711342    4.24022652549196
O        -0.20085123809764    1.13412046960883    3.59649495237731
O         2.99062932543881   -0.18663624144444    2.30720138726634
O        -4.67677978732657    1.14870324990904    4.92026190112642
Mo        1.51308709782532    0.42180844625100    3.44821954435826

