53
CSD_code = HITBOC | q = 0 | S = 0 | Stoichiometry = C22H22MoN4O4 | MND = 6
Mo       10.08936281022875    4.27831879028755   -0.69652408915210
N         8.93338918183165    5.79077933887788    0.40857050864191
N         7.85996674130988    5.54785833647796    1.17916379389824
N         8.24278547115326    3.09952264473430   -0.40431787501002
N         7.30602614591881    3.32069259920731    0.53381783902979
O        11.86586381946841    3.12614104505015    1.55379369031662
O         9.06715862573182    5.36522372675349   -3.40881921313247
O        12.70594003995932    5.82240502878277   -1.18044007048833
O        11.77804709947707    2.26589162848667   -2.29711118983284
C         9.02511754040318    7.10567268401515    0.28874566196423
C         7.99131342902430    7.72231860763772    1.01258535583000
C         7.26298425384524    6.70439886092959    1.57663163552223
C        10.07127567781400    7.80196294208266   -0.49913515356451
C         6.06034408547967    6.77414977725702    2.44555938065370
C         7.76414683510273    2.15917202023457   -1.20390478609928
C         6.49293702059006    1.75791988282070   -0.75928734898099
C         6.22455696455912    2.51446958526385    0.35498199065401
C         8.48082448715056    1.62657392769662   -2.38787948283809
C         5.02906388520435    2.51591903608048    1.23728234077040
C         7.48795603867730    4.23316658092487    1.63270046432454
C         8.47797659871493    3.67608714545079    2.68006209507258
C         8.70573146130357    4.69808604577878    3.75653310830417
C         9.70599125800025    5.65152169100785    3.61273301709613
C         9.87547184306475    6.63710665240867    4.56832773670035
C         9.04985732803161    6.67823275634243    5.67921495451880
C         8.05689571676530    5.72613201389091    5.83486911771232
C         7.88315456480579    4.74389232991988    4.87538419029621
C        11.08992497406960    3.55057633999791    0.82147829884481
C         9.34238026281855    4.98108934428526   -2.36500712426592
C        11.69635076372458    5.31536436505679   -0.97475084893694
C        11.08646548755821    2.96535097552984   -1.70538077413965
H         9.41578865633814    3.43575167925957    2.17885765350175
H         6.25805268081637    6.33969855937743    3.42570573919602
H         6.51022496966579    4.34537943322354    2.11462344831676
H        10.35983554519297    5.61670591753917    2.75152857429425
H         7.41518387558016    5.74866545722230    6.70344312862839
H         5.21189903696750    6.25825495411428    1.99441660584689
H         5.86217719233941    1.01456941272173   -1.20160822340736
H         8.05375326387891    2.75914203013398    3.09416216638330
H         9.37395561190550    1.08464214443553   -2.07926080108296
H        10.08408914039741    7.44362856234773   -1.52817754552563
H         7.10736790790212    4.00039667074305    5.00117170202090
H         4.52934811891950    3.48530834050456    1.22768193190622
H         7.80797962238334    8.77302728729246    1.10376874900351
H        11.05536375679879    7.62345402244341   -0.06770562746610
H         5.29295408893873    2.27097656999576    2.26616063232158
H        10.65576158034532    7.37292389681644    4.44622203838012
H         9.87732893401554    8.87172202874023   -0.49770220552548
H         7.83082342811283    0.94719182749071   -2.93375690361605
H         8.78854759764964    2.43552996389078   -3.04929884588906
H         5.78854443413084    7.81679747795251    2.58282428717201
H         4.32638083525582    1.76929266321984    0.87834939810625
H         9.18307931068665    7.44654439724681    6.42581687372575

