131
CSD_code = HITFOH | q = 0 | S = 0 | Stoichiometry = C52H56Cl2N8NiO12 | MND = 6
Ni        0.14534542802326    5.59468278312850    3.71527937049986
Cl       -0.66481506137873    7.92541844400680    2.73673130508003
Cl        0.96102087153829    3.26399664286367    4.68838599528381
O         3.64457246056238    3.08381867165137    1.27506405522178
O         3.18586294609704   -0.28678575329332    2.34755853430897
O         3.54687345298950    1.68530499879764    3.37432622839544
O        -3.36285065071806    8.11946215911707    6.12138285448250
O        -2.89680565573217   11.49176603183812    5.05678535958691
O        -3.24986841163905    9.52105120207003    4.02466817126056
O         0.40592855474965    0.96351523185359    2.45488328211133
O        -1.30950269679904   -0.99111595321455    4.89806993684355
O        -2.11104250698337    0.46028939759356    3.37802352337315
O        -0.12448225903833   10.23162228590227    4.97886531815304
O         1.67298381495068   12.06638401239955    2.50091869141941
O         2.41051689238758   10.63646281076105    4.07248073626742
N         2.77201553955753    4.97571640077752    3.05792045554501
H         2.50037917913178    4.02184921249531    3.32572411597865
N         1.92637845679822    5.97715526339315    3.28883082771573
N        -2.48256469404394    6.21526202226388    4.35906693146701
H        -2.20888022034240    7.16736566959410    4.08628789705447
N        -1.63512869028244    5.21247206868048    4.14135702755144
N        -0.02081964121700    3.44437960978187    1.89968086848957
H         0.27878632175053    2.91837244889926    2.73516444173233
N        -0.09911230640517    4.76840426783593    1.96677246636465
N         0.31038426200165    7.74653706515103    5.52925383256291
H         0.01084901985618    8.27394462483585    4.69483538948880
N         0.38713696228983    6.42247518372316    5.46172729325060
C         2.57843628873716    7.10575141011943    3.04518212416289
H         2.11124568981904    8.06598567329581    3.15193178910425
C         3.88366146786363    6.81696728790915    2.65804857010973
H         4.64678562052127    7.51664444461924    2.38691024934836
C         3.97834059817767    5.43159400586266    2.67978273865982
C         5.10680250480465    4.56054312528651    2.38520534466495
C         6.38943789865055    4.92964589530068    2.77402647200349
H         6.52831527962610    5.87485471819621    3.27648342740175
C         7.46581875370159    4.09038351674806    2.55519669582801
H         8.45506563676255    4.38331665526665    2.87108371092891
C         7.26175094477566    2.86627063151991    1.94400819808642
H         8.09205247107168    2.19522346140249    1.78273662195785
C         5.99596857743642    2.48973822655273    1.52835332259697
H         5.86469756527750    1.53182977898481    1.04952959279040
C         4.91094856373312    3.33384048349687    1.72731441544245
C         3.26107381001663    1.75132221998897    1.05563367999185
H         3.84698655578998    1.25860757031095    0.26970860047515
H         2.22060596679481    1.79414237284574    0.72331920546810
C         3.32170200448840    0.90984466282327    2.33390084637163
C         3.66365578144806    1.11309883989135    4.67845040757683
H         2.95713546210024    1.66943715313813    5.29960680485220
H         3.37938732804802    0.05798278504564    4.63090614397202
C         5.09113854368837    1.27567501599406    5.17717577445803
H         5.16473689299397    0.90533570919341    6.19541904839075
H         5.37563909842937    2.32488804186976    5.15791458817752
H         5.78072880754678    0.71792376314516    4.54705676672759
C        -2.28786256458082    4.08548254694323    4.39091564373810
H        -1.81917247543861    3.12458951107657    4.29675984785504
C        -3.59548594992004    4.37681354448713    4.76797312494366
H        -4.35938725085226    3.67857541278141    5.04049218190171
C        -3.69077316907609    5.76192767203567    4.73421051749218
C        -4.82021860501044    6.63666510860817    5.01392002138079
C        -6.10086578174853    6.26662442302503    4.61968978273410
H        -6.23850136022003    5.31663444351021    4.12599486639122
C        -7.17673090363741    7.11075378957276    4.82205958703668
H        -8.16439161094271    6.81695020368454    4.50202947322385
C        -6.97393292587247    8.34080286699327    5.42157962307445
H        -7.80349303088035    9.01597703208049    5.56888222491494
C        -5.71041730866642    8.71821096754993    5.84341951492949
H        -5.58020332391962    9.68087793211775    6.31288836852721
C        -4.62623655814958    7.86917152916909    5.66168530424846
C        -2.98069055456873    9.45157556732241    6.34513792119177
H        -1.94241891664196    9.40801479083264    6.68401120854106
H        -3.57203228973687    9.94290237767587    7.12790833947883
C        -3.03195516339696   10.29512514917726    5.06772810108717
C        -3.35718154444600   10.09547636655985    2.72085345252533
H        -3.06575395022451   11.14856241599184    2.77090683098316
H        -2.65196776785424    9.53476894311875    2.10222799370940
C        -4.78347461098983    9.94342513546411    2.21535830249347
H        -4.84987009903426   10.31480807691225    1.19699838441140
H        -5.47182390724011   10.50579702579215    2.84270750139947
H        -5.07548675707901    8.89622705849033    2.23281974051815
C        -0.48596499020805    5.19558389414781    0.77189549128301
H        -0.62411377600335    6.23942626735947    0.56755562631868
C        -0.66205765404500    4.11149907189864   -0.07828745690485
H        -0.97176995432697    4.15401849520329   -1.10140738205235
C        -0.35828822086840    2.98239654230154    0.68319531359862
C        -0.43712185278276    1.57258143903471    0.33630343275637
C        -0.88725203295047    1.19374173381497   -0.92795033422060
H        -1.12492711817487    1.95888199758099   -1.64964313934336
C        -1.05002791691313   -0.13505016199117   -1.26481382740841
H        -1.40427425747359   -0.40300466185258   -2.24835809312918
C        -0.77092545339991   -1.11885022898373   -0.33177647593332
H        -0.90708518970035   -2.16022596249317   -0.58139596847474
C        -0.31046419771730   -0.77400640634726    0.92533084399701
H        -0.08435788215044   -1.54807044942921    1.64136432705961
C        -0.12640045831568    0.55903246784223    1.26685410993487
C         0.26929650093436    0.16747376503434    3.60265308173883
H         0.68144705385160    0.79719887088886    4.40367343716871
H         0.83593097155061   -0.76765981939749    3.54632039658218
C        -1.19172212679879   -0.08987698604493    3.92388660831159
C        -2.63209886129611   -1.24906844622756    5.38064833785184
H        -3.31927323755329   -1.28039990215437    4.52860976127323
H        -2.57352579128073   -2.23268080779461    5.85018135335976
C        -3.07152931572897   -0.18598218854292    6.37657401175369
H        -4.05150144061127   -0.43830426529331    6.77139487977956
H        -3.12663016929289    0.78264910650624    5.88586916131305
H        -2.36089628452082   -0.12394599523468    7.19699426501779
C         0.77378151286348    5.99443069661720    6.65638410098031
H         0.91041560142377    4.95024910887945    6.86009692090528
C         0.95181985498705    7.07803831964339    7.50671281426789
H         1.26183119260851    7.03484702370459    8.52970808591645
C         0.64941823474920    8.20772696610815    6.74559094122429
C         0.73530115025522    9.61739321086635    7.09123191990049
C         1.19711961909238    9.99497649651776    8.35173830293939
H         1.43527943473313    9.22924041448499    9.07263003861966
C         1.37184611412315   11.32302114499362    8.68534632770956
H         1.73521001417343   11.58990192093910    9.66586731285481
C         1.09353877019047   12.30747000882102    7.75270391769235
H         1.23957475641605   13.34819673261406    7.99946683163537
C         0.62088574022921   11.96381901880527    6.49985819754674
H         0.39450914652041   12.73814985755186    5.78416480146324
C         0.42407902000135   10.63161406536998    6.16207622643306
C         0.04436357925512   11.00801251723098    3.82183703357916
H        -0.48530784326070   11.96519782423214    3.86426671187772
H        -0.38815791622722   10.38542384246123    3.02620184545310
C         1.51560055440481   11.20280221659207    3.50271939995898
C         3.00716028223397   12.25487673349618    2.01759718141606
H         2.98755161050541   13.21935117783213    1.50698811733603
H         3.69021120201777   12.29685320319578    2.87251676474860
C         3.41259826692501   11.13527424129554    1.07024623514101
H         4.40399725831721   11.33397852782308    0.67320923388151
H         2.70546045453603   11.06551725132268    0.24743561205235
H         3.42769493309885   10.18648599368647    1.60094546033340

