32
CSD_code = HITFUN | q = -1 | S = 0 | Stoichiometry = C13H10ClN2O5Zn(1-) | MND = 5
Zn      -10.44966347386051   -1.84535318055348    3.02035825165124
O       -10.91102062407436   -0.26359865799624    1.19814749171873
O       -10.61049975370807   -0.10633740255679    3.81052951641005
O       -10.36687581260699    2.09221618297932    3.66890102745228
O       -10.77217154895128   -3.30926623323922    4.29931852161445
O       -12.09798930138749   -4.70854079826048    5.40919439233129
N       -12.13396962512792   -2.39192956178952    1.96990596538280
N       -13.06179568517322   -3.09979889145806    2.59550087718336
C       -13.78480047663273   -3.81637569518467    1.72419039231890
H       -14.58072888200710   -4.45926584361269    2.04362031928132
C       -13.30044449995081   -3.54064843667902    0.46268999570236
H       -13.66575831073517   -3.93051261298126   -0.46512609883812
C       -12.25091082165506   -2.62760729438504    0.65968856613383
C       -11.41589011664820   -1.97177335365171   -0.33572887103255
C       -11.29065675895016   -2.51695774334020   -1.60905782526498
H       -11.80323462774684   -3.43998261219220   -1.83489231215949
C       -10.50573336265489   -1.91526649125870   -2.57445808227190
H       -10.41539420298420   -2.36082683622904   -3.55436388513057
C        -9.82875539684126   -0.74780846910379   -2.27144223116431
H        -9.20609588935818   -0.27182251883813   -3.01546323460073
C        -9.93917557164696   -0.18074188611795   -1.01477728422541
H        -9.40094081013730    0.72650114321649   -0.79092607493717
C       -10.72233784540326   -0.77962333528635   -0.03421886562407
C       -10.16008362945537    0.84376587464069    1.64467834763593
H       -10.47263588158943    1.76947490259913    1.14707035053648
H        -9.08673236228521    0.67726814257869    1.49357360739229
C       -10.39985444212482    0.97517804152399    3.18720857925098
C       -13.14628913387541   -3.05768921490501    4.01657633105838
H       -14.05885248924611   -3.54979597267080    4.35313481655295
H       -13.11090086370291   -2.01822318908106    4.35219064850137
C       -11.87763013360665   -3.78146399883580    4.65696230812503
Cl       -8.57237766587132   -2.18299405733077    1.98161445901861

