150
CSD_code = HITGUP | q = 0 | S = 0 | Stoichiometry = C55H88O5PSc | MND = 4
Sc        4.84936136145529    9.44222721883995    2.59510605753302
P         3.97557572920520    8.49554910381729   -3.77361358965038
O         4.73235539086980    9.89038435594590    0.62858005283186
O         5.32771674291991   10.60007071126418   -1.48488690834124
O         4.19233146137540    7.60259447202547    2.37429749061474
O         6.67259410425242    9.34861408069412    3.27537201606055
O         3.82551155776066   10.89087622698836    3.35129388884881
C         4.43633887754699    9.95337210094583   -0.61281389137149
C         3.35131426305092    9.44470502106539   -1.25822446771399
C         2.24272384057701    8.72846243692835   -0.54508600806728
H         2.49246377792944    8.64547145471651    0.50705812013071
H         2.08155385209320    7.71892549617164   -0.92209454431059
H         1.30085759488046    9.27352656417255   -0.63582472383171
C         3.13763010553537    9.73709900312710   -2.71341634776495
H         3.53641357154403   10.71383726477756   -2.99877185202051
H         2.07346709741838    9.69671012069860   -2.96392814512725
C         6.38338734125259   11.35740976595498   -0.91509761749731
H         6.41398566754394   11.14848780599213    0.16199985552094
H         6.17151834242707   12.42331841003378   -1.06954006380793
C         7.69174988963762   10.98194741222861   -1.53245558639422
H         7.93254022816175    9.92819711468550   -1.48435779704806
C         8.52409483719946   11.84158605577118   -2.09020034132799
H         8.30107360443134   12.89490789565546   -2.13834387636404
H         9.47146738234725   11.53638294661522   -2.50084430026923
C         5.79406623470317    8.63610862166936   -3.75820402839596
H         6.09101506789590    8.62666045212717   -2.70787451290243
H         6.20214440492531    7.74501524397955   -4.24447303379411
C         6.29351604774311    9.90989261779528   -4.42761534597317
H         5.99451407383155    9.96099111949234   -5.47234641647685
H         7.37905775473758    9.94724739377116   -4.38174158386643
H         5.91077619091426   10.77937412963356   -3.90082351497084
C         3.59297647761233    6.81186666316945   -3.18991208482794
H         4.30057481089402    6.11803422192440   -3.65261799678216
H         3.77357729636719    6.81552000899576   -2.10890274031452
C         2.15763704322723    6.38647745654613   -3.48059527405654
H         1.45101767489546    7.13108085396073   -3.12189061157998
H         1.94725883998982    5.45443844521287   -2.96255223543815
H         1.99283651177561    6.23111811157725   -4.54468759412016
C         3.39341913053589    8.67634385844560   -5.50875944101562
H         2.31001909536640    8.53042021682217   -5.49468247800515
H         3.58041583973691    9.71113043902559   -5.80786393452575
C         4.05205906795177    7.70471288486426   -6.48092793545798
H         5.12468355856610    7.87194507858743   -6.53874439964353
H         3.63647093680149    7.83911209811650   -7.47725476545001
H         3.88056896767165    6.67386612409159   -6.18039823558371
C         3.50998301455431    6.70353412830553    1.68483692492085
C         4.11337871907851    5.94645713737111    0.63079285922026
C         3.30831894783810    5.17098703970941   -0.18847051597624
H         3.74019665559535    4.60692301268084   -1.00045775498670
C         1.94550153682259    5.06744836988357    0.00933088230621
H         1.33501193337033    4.47532633611754   -0.65873477690222
C         1.38738520942949    5.66124287844988    1.12344069632307
H         0.33913354711432    5.49722402708163    1.30845431779047
C         2.13676322871416    6.43960113301214    1.98767037464666
C         5.63246403647326    5.84601444059586    0.48183040657171
C         6.30240016841566    7.20769503005809    0.26984010704395
H         7.37213689175551    7.07775490453007    0.10267041766624
H         6.16647615256107    7.85022509209092    1.14424850705461
H         5.86808482401277    7.70764197340405   -0.59665715770681
C         6.14805752071537    5.19858943512362    1.77214672900826
H         5.68666826841016    4.22150217642334    1.90750418294703
H         5.89223544094479    5.82305473424394    2.62052308706719
H         7.22796531176708    5.07227187718985    1.73218195201953
C         6.08260401660716    4.94904429960583   -0.68258076499003
H         7.17057551672905    4.90061157102403   -0.68536735088754
H         5.76490737150762    5.34367330267597   -1.64638112792139
H         5.71047100682290    3.93399232727610   -0.57017301247222
C         1.49698574843490    6.95719593052826    3.27625401082428
C         2.36025748572966    6.49762720937362    4.45903991142965
H         3.37448380500156    6.87209954474303    4.36216990633366
H         2.39583833516457    5.40975314881854    4.48802482562530
H         1.94309702951093    6.85514331095831    5.39830150112846
C         1.37227312043132    8.48497516821872    3.24941828031257
H         2.35044521952672    8.95797086251742    3.12232193681231
H         0.93646558060042    8.84963010010146    4.17830275828682
H         0.72765764147531    8.79064915696124    2.42684307687333
C         0.08619095988821    6.39908522422952    3.51536341897763
H        -0.26800290927686    6.74513950689051    4.48482544112210
H         0.08758963255233    5.31157794928086    3.52712346903015
H        -0.61734584927255    6.74918810982975    2.76338420686020
C         3.02508251416795   11.74384279708288    3.99097221809617
C         2.95714782106709   11.75536233695009    5.41708946849273
C         2.01907029271763   12.55133302767599    6.05251397363562
H         1.93353334856430   12.53941092607228    7.12585727188044
C         1.17003380495266   13.37882548905083    5.34933171893115
H         0.43530845627058   13.97987474179328    5.86515652043273
C         1.29714965658073   13.45061302367050    3.97906304685704
H         0.65371197786171   14.13664426538999    3.45485227644335
C         2.20821244105919   12.67447566544506    3.28022813421626
C         3.93038297706298   10.94563804813603    6.27303053434506
C         5.35523839098346   11.39787637548166    5.93943774416343
H         5.55954579564916   11.24828580624136    4.88207730785617
H         6.08747254396440   10.83399249950507    6.51353724247142
H         5.47450287130563   12.45554013321156    6.16819020001308
C         3.76461761202880    9.44718747529016    6.00500163765689
H         2.72671109479830    9.15503210269991    6.15219377842890
H         4.38787785118985    8.87748267086960    6.69138717985660
H         4.06122378019376    9.20089077625437    4.97794233767402
C         3.73861804250447   11.14750932022243    7.78355373174757
H         3.85662524961055   12.19154585825270    8.06240680867337
H         4.50066386126289   10.57575515149179    8.31084214405748
H         2.76489894111643   10.79368195785769    8.11539215566752
C         2.28120831785750   12.83979622226661    1.76150978471427
C         3.72646680426532   13.10143735640223    1.32642440940653
H         4.13255060102571   13.96158785432666    1.85508176130781
H         3.77012468103144   13.29427074301071    0.25444626213513
H         4.33707361086592   12.23113748019006    1.54588913671891
C         1.76690137267638   11.55986713022304    1.10053103218560
H         2.39694268263429   10.72368268420066    1.39307992151756
H         1.79486768997602   11.65476092376940    0.01597937616366
H         0.74383875875712   11.35851649639592    1.41332916005051
C         1.43849096002606   14.00807689726551    1.22809968232243
H         0.37581706462077   13.84578928661286    1.39200566073447
H         1.59565461119718   14.09250168593729    0.15314619606286
H         1.73352642552136   14.94961116159877    1.68540397105433
C         7.55825644502098    9.68274674467853    4.21473135183824
C         7.88513461304763    8.79780971068356    5.28607303674299
C         8.54102885604955    9.30245095832939    6.39641275666304
H         8.72341434665824    8.67081267392835    7.25034360276032
C         8.98248919053304   10.60989336010786    6.45032863411600
H         9.45020740718031   10.99602634493048    7.34402347550963
C         8.89930652413397   11.38187918013605    5.30985776749586
H         9.35781019465249   12.35677363848539    5.32012555159569
C         8.24341540990985   10.93200226107680    4.17611833149971
C         7.66015544607333    7.29324710252347    5.16402549446624
C         8.34988120783214    6.85623067991772    3.86384761705509
H         7.88887753790948    7.34844642983077    3.01221981361679
H         8.27783399392262    5.77801669840917    3.73724721685837
H         9.40284665671277    7.13278203790291    3.89521446102893
C         6.17442326444956    6.93168993876625    5.13490501516214
H         5.70691085570192    7.20509184581769    6.07821285290721
H         6.04837159359966    5.85885183448060    4.99201810070775
H         5.67211534113315    7.46130427300217    4.32314217607464
C         8.29914993469061    6.49129805936542    6.30611629340841
H         9.36460714788197    6.69444003304781    6.38361335870535
H         8.17186101053676    5.42856761062818    6.10489530118810
H         7.82403949466339    6.70618649129363    7.26060318437804
C         8.31430536342734   11.74869488944785    2.88882117145592
C         8.74016019045641   10.81011432978117    1.74995317377532
H         9.69613585739100   10.35016852114784    1.99484019478275
H         8.84941172051944   11.36043204212567    0.81647751993608
H         8.00668880659283   10.01696999358723    1.61082450413950
C         6.95711773386677   12.39091295205950    2.59253335627374
H         6.18899755074671   11.61557577284126    2.49834947289239
H         6.99865666252805   12.97230630782631    1.67168130754563
H         6.67191589618394   13.05405442333472    3.40738306198975
C         9.35533988725714   12.87532444266715    2.94780485289727
H         9.06352335213350   13.65245067451280    3.64962404161662
H         9.43942987453036   13.33272962119663    1.96281537941123
H        10.33300095956378   12.49061222335729    3.22797180029155

