119
CSD_code = HITHUO | q = 0 | S = 0 | Stoichiometry = C53H61N2P2Rh | MND = 4
Rh        3.71417527332790    5.12216073534152    3.00444729921007
P         3.68349857063858    2.86931893665445    3.57906525903378
P         3.66611966316321    4.37072243036172    5.19325734765619
N         3.42663426464791    5.21935406167403    1.05533842207055
N         4.02905434111324    7.06376983406646    3.09754050446982
C         3.10392740563651    3.97370203812111    0.48975239981817
C         4.13382471767740    3.09632061019470    0.09672883889502
C         3.79712137394129    1.93017413463218   -0.57251124935832
H         4.57225579909064    1.25720563696600   -0.90318236525972
C         2.47713586850714    1.61933318384801   -0.84733297710274
H         2.23632499448366    0.71958461086890   -1.39491892302294
C         1.46733846532519    2.44981871681874   -0.39904291723501
H         0.43837632229962    2.18246501145183   -0.58842355230273
C         1.75748232109306    3.62362493449787    0.28128877647449
C         5.57159672713185    3.43016515816498    0.42461411378410
H         5.56366245135926    3.98190149763490    1.38157775540463
C         6.44220082893028    2.18602653709379    0.59831709213633
H         5.94840668486156    1.44723205664103    1.22544150041659
H         7.38267866870959    2.45797476257725    1.07331989645391
H         6.67313138694842    1.73325077021740   -0.36378704168129
C         6.19321509462131    4.34318852516632   -0.63593951098541
H         5.72503015632073    5.32164166519791   -0.62499381067446
H         6.07769055762308    3.90805856520698   -1.62722788552128
H         7.25528806979896    4.47176425014480   -0.43654790008676
C         0.63619569534817    4.48617807980688    0.81671850407615
H         1.07906052894960    5.25489541505678    1.46585596638429
C        -0.12837320827235    5.18171839944030   -0.31100245252308
H         0.52632920749657    5.82928505687024   -0.88513279370929
H        -0.93395574590613    5.78619343392561    0.10127384384085
H        -0.56122074311096    4.44661103352666   -0.98671974948695
C        -0.34088201262418    3.65843059311582    1.65732944917326
H         0.18796512490038    3.06665348076822    2.40084311452585
H        -0.91778628551089    2.98090338275938    1.03205659047064
H        -1.03890365618153    4.31930410033442    2.16774671703457
C         3.23198703562522    6.21610916495123   -1.19515930065606
H         3.02006554252633    5.20265110436790   -1.52360577613211
H         4.11224613396812    6.57833529942577   -1.72496442861106
H         2.40204394878227    6.86389938636894   -1.47348143414458
C         3.46441000401272    6.29517157344249    0.29859370810709
C         3.73276562356710    7.57192779016807    0.78406334479536
H         3.73886367639506    8.37220098155709    0.05887992439288
C         4.00504336442683    7.92471782974486    2.10266322031344
C         4.28442014674970    9.39631415799080    2.32706032332662
H         4.41265714830210    9.63363605983572    3.37920080904448
H         3.46737904431945    9.99386650443956    1.92512508470438
H         5.18684883944278    9.68784216399579    1.79082700256647
C         4.38306703229703    7.50507645206105    4.38486329378933
C         3.38968589044663    7.95047912956265    5.27658415653602
C         3.77994449748965    8.54550062896827    6.46654777251373
H         3.03295512434382    8.92022244003420    7.14892682774639
C         5.11845763058885    8.68726038405564    6.78718186027035
H         5.40558978753939    9.18593313903178    7.70167387875631
C         6.08575985947238    8.15774176025339    5.95280139059746
H         7.12469407776057    8.23000400730182    6.23595598885789
C         5.73870285009465    7.54547789050557    4.75783266765067
C         1.92927556889938    7.74966589709256    4.94212836586604
H         1.87064327309484    6.89187495147691    4.25313046986453
C         1.09735686988120    7.42222268572889    6.18317832320046
H         0.12805256968717    7.02740517074550    5.88578869719964
H         0.92577416591287    8.31135299445961    6.78603725185994
H         1.59363578165828    6.67359690552658    6.79708490744253
C         1.33563590378628    8.96909534911236    4.23300533609951
H         0.26350449762070    8.83589659789436    4.10245403741871
H         1.78392830373954    9.10253889548986    3.25412182818817
H         1.50299129050405    9.86993295420563    4.82101579276005
C         6.78928164790529    6.89089210836052    3.88947675665843
H         6.26712152956594    6.19774018240391    3.20684676710850
C         7.78085626401457    6.08056555124499    4.72873805572325
H         8.38572815131893    5.45102193943849    4.07880037111053
H         7.25949053929131    5.44718053357115    5.44416996368343
H         8.45500427481778    6.73419287934814    5.27755815382407
C         7.54739432991941    7.91351059195013    3.04193409589159
H         8.34671947997103    7.42263807138731    2.49008037583437
H         7.98563056399724    8.68224512673449    3.67592099946516
H         6.88365232464977    8.38967469560286    2.32761981586944
C         5.24756126791261    1.98412727649010    3.86347607462895
C         6.39685612422296    2.76080471945407    3.98380325234737
H         6.30513057764955    3.83893553774740    3.90792762728250
C         7.62344697922140    2.16805402175403    4.19988097602091
H         8.50824223351183    2.77827860363569    4.30870658706492
C         7.71909738917963    0.78691849965078    4.27645156280984
H         8.67771443961955    0.31868681136853    4.44432472459651
C         6.58409308784994    0.00726029663784    4.12890027040257
H         6.65871384627404   -1.06978300505509    4.17592618554159
C         5.35026693200613    0.59832403342263    3.92184731764692
H         4.46723315307897   -0.01538987670848    3.80804061320038
C         2.45857038682119    1.54461819702335    3.92885001447075
C         1.78404594251235    1.00731453330769    2.83670368592796
H         2.02603778332653    1.35785995161054    1.84343955371174
C         0.82356725151542    0.02873417717508    3.01882780402085
H         0.30796874042245   -0.38275273133103    2.16345180926292
C         0.52127907204704   -0.41615354540353    4.29482610787784
H        -0.23646241705952   -1.17193669307909    4.44066913545561
C         1.19627419999998    0.10767121661268    5.38536324977105
H         0.96840874629802   -0.24090357916342    6.38235904998042
C         2.16284009447018    1.07931511696473    5.20535567692804
H         2.68313259473853    1.47861976139007    6.06355167692643
C         4.78461645580706    3.94648211099937    6.58982037575470
C         5.26242185323469    5.02987774659362    7.32304177444569
H         4.94387039577559    6.02726186288135    7.05526410556368
C         6.12710512467913    4.83387833930546    8.38368999239676
H         6.48677309274569    5.68274118202241    8.94656109048603
C         6.53382971602152    3.55224173072976    8.71675821370235
H         7.21618178686258    3.39603242557830    9.53932307906723
C         6.06169552510652    2.47017023955447    7.99272545999489
H         6.37330819036748    1.46816535544021    8.25040731512520
C         5.18975350152137    2.66270686398954    6.93614280621683
H         4.83198452956126    1.80765776804109    6.38196379636207
C         2.03036503267642    4.07693651661721    5.93211017511606
C         0.94362840846659    4.17700698872739    5.06756514074097
H         1.13063213575586    4.44071455824745    4.02952564926567
C        -0.33798547743916    3.94960628256718    5.52351981206054
H        -1.17493446645675    4.01495720305804    4.84376853635295
C        -0.54976306695852    3.63953723358629    6.85820891825041
H        -1.55155822248045    3.46132806111702    7.22024924475299
C         0.52414414220265    3.56741066359969    7.72945619321971
H         0.35859075245844    3.33829265064734    8.77248723325641
C         1.81224254975021    3.78445754212707    7.27359365336314
H         2.64701611389940    3.72558978171288    7.95872353687017

