109
CSD_code = HITJAY | q = 0 | S = 0 | Stoichiometry = C40H59ClN3O4PRu | MND = 6
Ru        9.31306109086948    9.61248138177154    4.69656345873097
Cl        7.36164247495093   10.13479003250075    5.80504750321539
P        10.41584877021514    9.85199325914564    6.71195813332685
O         9.80561897257703    5.34783464764611    3.54827707778006
O         8.40497172329584   10.02908030317706    2.74362557360877
O         9.26562501567350   11.67321592162556    3.79000781243829
O         8.65755694415637   11.91005617741617    1.75682833209361
N        11.02262121592574    9.45035990187616    3.50584052999410
N        12.51734406008910   10.07729300429439    2.02409020374495
N         8.75674035580044   11.22092683156638    2.74494981253907
C        11.74500700191127    4.04453506627369    3.28531221324488
H        12.16433315070086    4.79559509817169    2.62056637745473
H        12.13979838935794    3.06990229318403    3.01410017741124
H        12.04211244279797    4.28012525094644    4.30394046890405
C         9.60739841851945    2.99087640943875    4.10591465509480
H         9.93204334684259    3.16970952563650    5.12829340294793
H         9.92174557962382    1.99617012630090    3.80231440885343
H         8.52167217207177    3.04181296668868    4.07783445253148
C        10.22235686480179    4.04014242171297    3.18074783537203
H         9.93777564390513    3.83735628636279    2.13832059856395
C         8.53897688272358    5.78063895732714    3.29576227332286
C         7.61960651963770    5.12349113936051    2.49377613632942
H         7.85398691911180    4.16945233367101    2.04636270393948
C         6.37769685895908    5.68794123102372    2.24624267230406
H         5.67597372746223    5.15847167772413    1.61829187173993
C         6.03824819482007    6.91488591516140    2.79375246040612
H         5.06677213066563    7.34280117464571    2.59968289761705
C         6.94419220523941    7.58720094207367    3.58376875843369
H         6.67418579875269    8.52925804111025    4.03701170599225
C         8.20958049587529    7.04604932048475    3.86571998143465
C         9.15345944212349    7.70521392567904    4.69858929328649
H         9.86880175518842    6.99877874094327    5.12915861157153
C         9.57444978527191    9.10952989519799    8.20138035974125
H         8.70453389063027    9.76812867038258    8.32657957334465
C         9.01526402798934    7.71705597039006    7.90882055208146
H         9.82735735879660    6.99782506022829    7.78952193664315
H         8.44524317890661    7.75410788586297    6.97522938521902
C         8.10428711030489    7.27473932577088    9.05114539273456
H         7.25367097553421    7.95572929983339    9.11143971525178
H         7.71733502401662    6.27449065593788    8.84767968731531
C         8.85818469857818    7.28142290918431   10.37806973165455
H         9.66871669264578    6.54910810509592   10.33935141024936
H         8.18788939786114    6.99342845438871   11.19031015720599
C         9.44091514387645    8.66437728165926   10.65140615689926
H         9.99801580039973    8.65640624605923   11.59138819961089
H         8.62842305245925    9.38718657174224   10.74917753869512
C        10.36287037566125    9.08821981480126    9.50867477011936
H        10.78620822123533   10.07000667937220    9.72711338640911
H        11.17801033783047    8.36620923823551    9.43629374924818
C        10.56483335430272   11.64539869990438    7.21832232570362
H        11.07160927291745   11.66210342408099    8.19289167339125
C         9.20647089499670   12.33149684198357    7.36397065313362
H         8.56772587329640   11.79652141094010    8.06779616595169
H         8.70353673817805   12.33486412050009    6.39474180536860
C         9.38622998060063   13.76996206126847    7.84162311594699
H         8.40770043454574   14.24123519142813    7.94946934643151
H         9.86950218282682   13.77369241585803    8.82320654839652
C        10.23618203969170   14.55888307475402    6.85231653117095
H        10.37999390099391   15.58172073695299    7.20771998456197
H         9.71873324194857   14.60426066692792    5.89225033036663
C        11.58475741926620   13.87455561467028    6.66188157447460
H        12.13510148105900   13.88079311708085    7.60742667623860
H        12.18086416719160   14.42052806049791    5.92656798587360
C        11.38669402192286   12.43374283205311    6.19602910191622
H        12.36206411668688   11.97282493209197    6.02714287245493
H        10.83484356759827   12.44089087377484    5.25464099490836
C        12.22100729344229    9.33974269653727    6.65200716521932
H        12.54357819306320    9.78721301797651    5.70009692888264
C        13.17317274874268    9.83235455606376    7.74325193510684
H        13.09282038815792   10.90944224462187    7.88531255978252
H        12.94462354857793    9.34947877190289    8.69189043537867
C        14.61264209929594    9.49070638776878    7.35461526471928
H        14.87215662159840   10.00389634900205    6.42502721653129
H        15.29455583278209    9.84523806099408    8.13064829289026
C        14.78087562440510    7.98677015386394    7.16519549479991
H        14.59172053674167    7.48074596757685    8.11453024257556
H        15.80664655141367    7.76118803167226    6.86592783516958
C        13.80264986583021    7.47109247922167    6.11446231066024
H        13.90240125130359    6.38830741218497    6.01343418016085
H        14.03851301914387    7.91842013938800    5.14562547752102
C        12.36772184370732    7.82750700947421    6.49672857949774
H        12.11276658645806    7.33230106735793    7.43490314812905
H        11.68510095580063    7.47900161657872    5.72255184016741
C        11.69312799175428   10.47139916837470    3.00995273686319
H        11.62524844160514   11.49286495690925    3.33471570296710
C        11.43148393964555    8.35160406576448    2.81003621435520
H        11.03294393913964    7.37748125444158    3.01488458833558
C        12.36165068194298    8.73029953353592    1.88747094330622
H        12.90542411388513    8.16910097222550    1.15556356558592
C        13.35837603144662   10.92732314242029    1.25936027892887
C        12.83296610826955   11.57047379720198    0.13778904579304
C        13.67446457495368   12.40432868827502   -0.58269651555310
H        13.28817417893908   12.91305723198984   -1.45373113222828
C        14.99814890600578   12.60274537728991   -0.21089433549033
C        15.48688483177024   11.94763536436495    0.91061272251034
H        16.51432463146134   12.09591713140009    1.20984603587474
C        14.68023044101657   11.10658044956540    1.66181403690192
C        11.40725512414667   11.36427363503369   -0.26587776416249
H        10.72639306271503   11.86912520177707    0.42101443437996
H        11.14710498712062   10.30625833399315   -0.26436872065487
H        11.22995490601974   11.76431377240142   -1.26006154379210
C        15.87644678607570   13.50514083049573   -1.02095723503473
H        16.83738227775279   13.65470877838582   -0.53598557842733
H        15.39952450831045   14.47323735959086   -1.16235982717865
H        16.04962125634160   13.07380414709050   -2.00641306827077
C        15.19809871719071   10.40675026477414    2.88255168041072
H        15.13732285173062    9.32493285654443    2.76249287258653
H        14.60666883061501   10.67790307294814    3.75741626462441
H        16.23415259532229   10.67624820709965    3.06768390742005

