40
CSD_code = HITKIE | q = 0 | S = 0 | Stoichiometry = C13H21Cl2N2PPt | MND = 4
Pt        6.68552027080010    2.15645423774792    4.20505271346397
Cl        8.90392964402494    2.26034919723614    3.73753633966226
Cl        6.12699524695147    1.77391879912676    2.04780182770376
P         4.43141768050951    2.00595899073178    4.52663254354994
N         7.17433196615019    2.52033179575581    6.15602767641034
N         7.20692986319715    1.80081346598771    8.38493588001402
C         6.93425791771280    1.66401411610549    7.07999936005954
C         7.83777594888073    3.01156068471908    8.86606411644760
C         8.69330509144640    3.59979250168183    7.74995597012904
C         7.83724592811209    3.76262144745837    6.49855020160484
C         6.78168292109972    0.83735460369033    9.36271365533128
C         3.64423303921249    0.44792786313806    3.99068264918243
C         3.41932964334022    3.23450164004260    3.62745540645340
C         3.90839574277980    2.23025472593415    6.25821058444768
C         3.45172822945070    1.19273068989870    7.06178488586336
C         3.20048294849124    1.40774959947803    8.40643654437155
C         3.41105897616136    2.65658961058874    8.96502052661200
C         3.87404102402688    3.69611669140592    8.17285427775592
C         4.12632015633248    3.48059648591096    6.83241207744587
H         6.46001617287379    0.73018202110849    6.79806082364153
H         3.28724458396575    0.21252043894448    6.63965892370271
H         2.84046656915321    0.59554149939759    9.02151307365454
H         3.21540267656677    2.82085833969915   10.01459264788873
H         4.03917087382207    4.67258254669161    8.60551015581402
H         4.50248097678286    4.28298412038746    6.21198387701977
H         8.45311173395169    2.76287423289193    9.73579761745902
H         7.07041364970995    3.73002171214526    9.18420192300054
H         9.10945739021350    4.55854912623003    8.05514402460095
H         9.51439608609928    2.91722929582224    7.52596059340135
H         7.07664040957567    4.53778701815642    6.64909802977627
H         8.45888965508641    4.04690235204972    5.64494935196076
H         7.63465575758593    0.49492184824446    9.95412086323294
H         6.04349435746946    1.27972009865461   10.03830994855852
H         6.33051688141408   -0.01934915418620    8.86792308629301
H         2.57583624851262    0.46054192927127    4.20572777937948
H         3.81180981403230    0.36991917107946    2.91699520349829
H         4.11845788255960   -0.40495980331615    4.47294091058995
H         2.36151665823537    3.08486623673658    3.84255091684666
H         3.71404843302589    4.24454374082141    3.90373760736592
H         3.61549095068124    3.09162608253564    2.56539540580356

