41
CSD_code = HITKAZ | q = 0 | S = 0 | Stoichiometry = C16H18N4S2Zn | MND = 4
Zn        3.58025476346156    9.24447898661922    4.73859018012151
N         3.03389570218309    9.24398951622307    6.48601360890098
C         2.96413632479203    9.24262713583419    7.66519134737025
S         2.91243604791289    9.24041443786353    9.23393064691489
N         2.61382298797399    9.24434740427052    3.17653530563062
C         2.30863254774130    9.23848577976906    2.03560690209242
S         1.94722410440940    9.23153759511210    0.50698746431083
N         4.82898567392299    7.59441659646101    4.57521958243988
C         4.91812137335140    6.93599585434932    3.42450884453611
H         4.43391264795924    7.39764207440839    2.57517020898335
C         5.57033269347234    5.71698726773435    3.28518806971855
C         6.16482612967037    5.17562136887860    4.41996951637591
H         6.67975463233849    4.22744076227416    4.36361539501333
C         6.07845610984807    5.86107416302246    5.62004939740327
H         6.52272926823970    5.46576361718520    6.51967634281956
C         5.39860226663792    7.06570769755809    5.65473122871816
H         5.29302605356236    7.62379867311097    6.57345869700545
C         5.65740297122262    5.04590418879428    1.94885507466118
H         5.72427991540127    3.96505676956983    2.08319668949819
H         4.76137204432454    5.26856783441661    1.36803771356365
C         6.88864935782914    5.53965969488645    1.18527153293006
H         6.95146840771012    5.04703027608904    0.21881086517513
H         7.79699084566206    5.32482503873240    1.74410084497260
H         6.82884686195355    6.61325445948242    1.02327512921233
N         4.82895426071338   10.89431482284661    4.57589034069702
C         4.91816368610699   11.55270604714942    3.42516962389785
H         4.43346887069488   11.09127825496146    2.57598531245841
C         5.57103684687762   12.77134796755100    3.28572153919424
C         6.16605079414202   13.31238327502249    4.42038929187276
H         6.68147610459447   14.26028830220110    4.36393743605000
C         6.07956961489465   12.62696465830780    5.62048122558512
H         6.52424893073124   13.02204548485243    6.52000862988821
C         5.39909962818406   11.42267779452075    5.65528450452915
H         5.29345728400200   10.86460059654595    6.57401556179287
C         5.65828031689230   13.44241417598723    1.94938626194375
H         5.72579777059094   14.52321906857635    2.08374384969061
H         4.76203147524145   13.22028835527375    1.36870157816551
C         6.88913042838143   12.94798981469024    1.18559371100849
H         6.95207056885634   13.44060279867485    0.21913146171507
H         7.79767734804933   13.16232140751904    1.74427756837887
H         6.82872633948310   11.87442998288190    1.02359151487568

