75
CSD_code = HITKIH | q = 0 | S = 0 | Stoichiometry = C30H36N6S2Zn | MND = 6
Zn        2.04544502489238    4.26316461301698    5.06242073218184
N         2.49348670848227    2.40425924588147    4.83048416921557
C         2.54770830107647    1.40742422067313    4.21056164999905
S         2.58686947315578    0.05278695417446    3.39062317721135
N         2.55689100266000    4.61408677415795    2.94273215188572
C         2.22633186464466    3.74514190620158    2.00050583033101
H         1.62355522891453    2.90561187398599    2.31411816990399
C         2.61470782733360    3.85667477593363    0.67006967797718
C         3.39558267487657    4.95213776179313    0.32366153415160
H         3.72926937080953    5.08325541953135   -0.69615354806837
C         3.73342792294772    5.87240943442521    1.30190141239697
H         4.33167854985074    6.73853640847398    1.06477695820890
C         3.29236479359890    5.66227055931668    2.59724886361240
H         3.52550428294791    6.35827194349503    3.38780708252136
C         2.23898984895527    2.79541742456729   -0.31848861812319
H         2.30723330725620    3.19254004700089   -1.33339403179317
H         1.20995218680420    2.47783521781780   -0.13891477002429
C         3.16561967499129    1.58595481914905   -0.17666463487392
H         2.89461040595620    0.81786047761632   -0.89650387305462
H         4.19954118225358    1.87634082335592   -0.34994280136781
H         3.09011973767114    1.16484184439208    0.82255874415307
N         4.14895176055095    4.67184777558164    5.81195883462688
C         4.56827018851394    5.88657197567421    6.13644369792898
H         3.99706387238884    6.71342693371929    5.74004387906462
C         5.66254753268483    6.14143357455245    6.95625323505223
C         6.36635600793137    5.04561850461919    7.43928313633932
H         7.22294770133092    5.18796373181522    8.08329977512637
C         5.95450417868352    3.77370406830809    7.07902358797216
H         6.48441319266877    2.90017351067397    7.42582230275861
C         4.83772403691953    3.63481026359581    6.27223693116836
H         4.47295435233108    2.66219228393960    5.98009155917122
C         6.00552383776168    7.54772930203991    7.34454551727413
H         5.90951732116600    8.20366884417422    6.47736549876997
H         7.03687633693157    7.59286778607623    7.70013496787097
C         5.06106705886671    8.03765969597355    8.44498909122993
H         5.33106264491153    9.04504059851799    8.75104805146227
H         4.03429169589723    8.05312248845462    8.08740246792974
H         5.11874747272438    7.38453597742944    9.31387752446240
N         1.59705412399208    6.12185790243619    5.29575791933380
C         1.54221972317611    7.11600686680465    5.92005548718057
S         1.50309465723689    8.46751408634539    6.74506087625658
N         1.53519119434623    3.91224719169007    7.18249074287548
C         1.87083365074124    4.77876962174984    8.12517611357145
H         2.47467835209524    5.61737986704050    7.81115676969462
C         1.48645311269971    4.66585517638879    9.45662375730143
C         0.70398136815347    3.57171300746607    9.80364357854083
H         0.37339023929780    3.43957886051604   10.82433181827192
C         0.36047514757879    2.65416968439362    8.82482927116961
H        -0.23940775841881    1.78926693869982    9.06229248306899
C         0.79793949528155    2.86547896898858    7.52843280185309
H         0.56012120583942    2.17165527498084    6.73734721978451
C         1.86750170358093    5.72457043134069   10.44583851355535
H         1.80771150237148    5.32404955783002   11.45994419501923
H         2.89441759605153    6.04504083718131   10.25951027846469
C         0.93710053654291    6.93236148043514   10.31476023114361
H         1.21188302830432    7.69892893607535   11.03479041760010
H        -0.09482290796120    6.63912285422110   10.49501217523499
H         1.00415750220897    7.35652545875606    9.31621797504669
N        -0.05699815601803    3.85487080863007    4.31006843487632
C        -0.47597903335685    2.64035132113114    3.98440787479203
H         0.09378061720678    1.81321848891582    4.38232078498325
C        -1.56817524041205    2.38602301239941    3.16164299574758
C        -2.27026147947570    3.48217801810303    2.67690192302478
H        -3.12517738402631    3.34026058094493    2.03056878771757
C        -1.85890949327959    4.75389393747171    3.03846197951732
H        -2.38766259204389    5.62765879849320    2.69048820381749
C        -0.74417760103097    4.89224882876227    3.84815549983026
H        -0.37985186998623    5.86467422954643    4.14150880137938
C        -1.91075252545423    0.97989619820249    2.77235531469870
H        -1.81901634305930    0.32417687476091    3.64016672740633
H        -2.94064854115374    0.93558465064423    2.41246583494701
C        -0.96217827738784    0.48861202963526    1.67606993936434
H        -1.23194445961082   -0.51859046352259    1.36921626106633
H         0.06306095855456    0.47215994855038    2.03797181192185
H        -1.01549061484639    1.14149987348101    0.80672826525124

