84
CSD_code = HITQEH | q = 0 | S = 0 | Stoichiometry = C40H35AgBF3N2P2 | MND = 4
Ag        2.76910710002213   12.47601228514323    1.78323547707764
N         0.93278389511874   13.68633755920450    0.94468400271559
N         0.39398518679743   14.15393200714586    2.05935584139364
P         5.14152043721043   11.92925478431151    1.23962910792334
P         1.57381776713987   10.25612689310152    1.19988838387948
B         1.15517788397863   14.17173364669654    3.40970534910457
C         0.04487615860816   13.83277573358443   -0.03783550097375
H         0.26800268640066   13.51453770893701   -1.03787306928182
C        -1.11185628641420   14.41937093794236    0.45032778798525
H        -2.01050173325206   14.67121082657561   -0.07309870323111
C        -0.84002993057116   14.60914366412013    1.80147644693881
C        -1.73140861525570   15.21299784239288    2.82093278578700
C         5.71762137513157   11.49530999910145   -0.42942689714082
C         5.37864719555922   10.26096173327836   -0.97941196692655
H         4.85094851619406    9.53250837248681   -0.37874499548018
C         5.71317745276933    9.96454234990552   -2.28646916432459
H         5.45516479184666    9.00066279464762   -2.70003356268961
C         6.36890247256248   10.90425754869516   -3.06548304999017
H         6.63005133079285   10.67213247047163   -4.08721313096903
C         6.68103878698499   12.14556040681552   -2.53468861642151
H         7.18125483728872   12.88388559189587   -3.14428429906669
C         6.35121623313995   12.44558309640280   -1.22601465582864
H         6.58703038489811   13.41762676969536   -0.81394858638001
C         5.54100844827052   10.43739806367897    2.21582028982533
C         6.53720874934900    9.52870613571696    1.87421467779599
H         7.11429456531197    9.66564390722233    0.97053064177618
C         6.77658618407988    8.43161025396026    2.68228591085552
H         7.54665245914627    7.72492130111652    2.40833228867311
C         6.03477891980927    8.23581852900727    3.83582242789497
H         6.22370095771732    7.37472303861861    4.45941503959962
C         5.04998658057185    9.14426201842697    4.18779460143735
H         4.46924963495340    8.99496448130034    5.08551537184443
C         4.80576447747100   10.23945847478000    3.38112746957792
H         4.02855660198213   10.95515011322773    3.64637275843931
C         6.44998275128995   13.04119816252852    1.85507250522083
C         7.80295570962714   12.77225537752881    1.66851375269164
H         8.10892200772965   11.89894783629704    1.11018511293568
C         8.75196345504437   13.62964215091009    2.19143969013408
H         9.80185232111907   13.42223298706674    2.04397763543072
C         8.36085591900397   14.75228137145968    2.90551188142458
H         9.10763203349788   15.41793058791805    3.31215034377343
C         7.01589249164037   15.01993666746209    3.09711441191231
H         6.70966801018537   15.89333834558636    3.65305284347505
C         6.06135230390724   14.16605274517507    2.57337284748661
H         5.00396078495509   14.36714478206111    2.71572545400807
C         1.87424457587743    9.98817494849827   -0.57820232003104
C         1.70375210501715    8.76202362179620   -1.21299854905172
H         1.38139927363541    7.89995361742659   -0.64576285071627
C         1.94789744066473    8.64875790532099   -2.57019509099812
H         1.81437641282227    7.69458676522936   -3.05940986422565
C         2.35679328967512    9.75144572503819   -3.30270417880998
H         2.54526520637807    9.65646331058947   -4.36190140166928
C         2.52579186086111   10.97534960384346   -2.67560304741199
H         2.85013230863565   11.83539705306682   -3.24291407591817
C         2.28992745477449   11.09071134387089   -1.31908255391293
H         2.42927469323704   12.04438263612873   -0.81670403563777
C        -0.20574219971977   10.63733356795405    1.23189334095350
C        -1.03138273034478   10.57975810119673    0.11634784239168
H        -0.63779579871923   10.25430710536903   -0.83643743228585
C        -2.35928539711619   10.95451189218406    0.22546100990982
H        -2.99746231892349   10.91724037260504   -0.64556241400367
C        -2.86906569047453   11.38185102492777    1.43988283014228
H        -3.90351447222034   11.68174816422656    1.51617534457418
C        -2.04921010148201   11.43709787456746    2.55633417360352
H        -2.43981481898308   11.78117084274297    3.50157587870665
C        -0.72023276620281   11.07616917929416    2.45025352136980
H        -0.06394048134767   11.14516607881388    3.30894430211520
C         1.62966349885335    8.54805111770304    1.84118255456614
C         2.86099026285426    7.89686453233125    1.79020162259306
H         3.70686989728973    8.39732407821659    1.33741902852221
C         3.00392186203822    6.62623730072590    2.30984646890642
H         3.96226525674933    6.12995640217979    2.26147196822740
C         1.91916698020818    5.99516942165895    2.89906956185426
H         2.02880603833206    5.00253970784760    3.30993074750297
C         0.69608092402359    6.64113769431324    2.96333061820964
H        -0.14961935150323    6.15123508647417    3.42348900022842
C         0.54784273069446    7.91447379482263    2.44118362027766
H        -0.40902726142099    8.41388771801544    2.49551277023960
F        -2.89037756490572   15.62321757890082    2.26528753734271
F        -1.21389162757019   16.29278777188541    3.42740262493900
F        -2.09022215870051   14.36567410313737    3.80430074949204
H         1.53730150030550   15.27427135299502    3.62779760278272
H         2.18211616203577   13.38367154762585    3.24847186375316
H         0.45985171086455   13.72811770280745    4.26105429149600

