45
CSD_code = HIVHIG | q = 0 | S = 0 | Stoichiometry = C14H22N4O4Zn | MND = 4
Zn       -2.54865811081127    6.03853626567039    2.78550528832129
O        -0.51201859256790    5.63238281901260    2.46430474580096
O        -1.66831939558084    4.59811428269623    4.00695087671151
N        -2.37922909028692    7.43719741814651    4.30424839626281
N        -1.55270737901283    8.68134115340002    5.89229664597259
H        -0.91466549830463    9.26869677628765    6.40347307022924
C        -1.35853312910027    8.19102376401983    4.64919573322691
C        -2.74879327841479    8.20083381647405    6.35341950085964
H        -3.12240675432854    8.43926831113325    7.32724795352716
C        -3.24941956604670    7.42976346390564    5.35219459865570
H        -4.15643115065761    6.86552520075487    5.29567829519917
C        -0.18376183202577    8.51555044729152    3.78996975702149
H        -0.07838829675623    7.69106633606769    3.08080248532420
C        -0.45740527943944    9.80175294389765    3.00196977859999
H        -1.33926496502736    9.67637145761718    2.38007438365265
H         0.38939744866321   10.02713868041797    2.35936578821037
H        -0.61637891092216   10.64424773209403    3.67397467939798
C         1.09886187385618    8.64037667792737    4.61286293168271
H         1.08064863300608    9.52460318778403    5.24934935802953
H         1.95266156354996    8.72767619130521    3.94641011993972
H         1.24165958858173    7.75879170250420    5.23316924339790
C        -0.63797067266713    4.76676175369857    3.34627717530581
H         0.23928204747632    4.12395400508898    3.56864385279896
O        -4.58527948325896    5.63102799301024    3.10635720559809
O        -3.42793428450212    4.59762652434400    1.56390625893625
N        -2.72005849271569    7.43701200007702    1.26689631942855
N        -3.55020261928995    8.67953256824766   -0.32053483991074
H        -4.18934073669786    9.26652560111741   -0.83076509105647
C        -3.74141050638766    8.19071686147522    0.92360476940194
C        -2.35538837675709    8.19817206977016   -0.78406630623876
H        -1.98417870152194    8.43534355552880   -1.75912216316758
C        -1.85245431285256    7.42815849881395    0.21683283984837
H        -0.94542369800112    6.86379118500136    0.27180497682160
C        -4.91397654726285    8.51641745411365    1.78540026431752
H        -5.01786254030571    7.69254893655479    2.49548788808998
C        -4.63810691562060    9.80330605258171    2.57149205883572
H        -3.75445298662223    9.67852365127390    3.19095853134934
H        -5.48307285373739   10.02927633446216    3.21631881130634
H        -4.48105027509756   10.64519128970192    1.89826465373498
C        -6.19861128854323    8.64091794711794    0.96563000807547
H        -6.18163231767240    9.52440557173823    0.32812157594066
H        -7.05070264310275    8.72929315967491    1.63410877128321
H        -6.34332920585346    7.75874418872863    0.34666626190500
C        -4.45860066383919    4.76567855197291    2.22423832026876
H        -5.33538980354319    4.12231561749550    2.00161422710255

