43
CSD_code = HIVHAY | q = 1 | S = 0 | Stoichiometry = C14H24AuN4(1+) | MND = 2
Au        7.40115196845688    8.49515114834683    1.41875162588584
C         6.14656769939297    9.88286064162570    0.63670499807999
N         6.48287382025137   10.95847272128612   -0.09591939353132
C         7.82385567897278   11.32290224335885   -0.48165742687831
H         7.78161192206237   11.81440163197209   -1.45616393050217
H         8.41186889381298   10.40657786356064   -0.57392002403892
C         8.45890762557160   12.25295527387890    0.54793318079673
H         7.88112126048089   13.16866571942862    0.64471454259979
H         9.46664078370041   12.51215809698413    0.23826643783185
H         8.50504790793590   11.76713060991964    1.51992288060161
C         5.37368391927235   11.70062207926609   -0.38745378992581
H         5.41692079268241   12.59916171576200   -0.96679637174069
C         4.31853170140755   11.06453339751263    0.17568322498664
H         3.27690432441038   11.30930811157103    0.17589640649641
N         4.81352403403897    9.95212273566123    0.79501281860906
C         4.01152226402222    9.02377960379856    1.55325326523707
H         4.49067951959897    8.04286408309667    1.50612100030982
H         3.02618986513737    8.95748346230821    1.08671012343026
C         3.87561286134174    9.47278341879261    3.00522256926777
H         4.85437381751527    9.53651279216975    3.47521031965492
H         3.26871052169695    8.76068407554706    3.55590232408952
H         3.39945911671703   10.44842609894690    3.06122117971789
C         8.65893107068314    7.12638138382481    2.22811532747644
N         9.99851351180061    7.09540184568090    2.12112325233291
C        10.79868417725810    8.03587494729876    1.37579525309876
H        10.22024023318325    8.36382107488555    0.50855959585033
H        11.69702742439957    7.52266147968905    1.02605464841834
C        11.18142160677592    9.23643456100660    2.23631118002368
H        10.28933012837442    9.75266843335444    2.58377689519314
H        11.78307890773037    9.92913435127650    1.65588163847377
H        11.75815261204324    8.91883664530998    3.10138631602972
C        10.51101823009374    6.06963537950719    2.86336580578200
H        11.55966424416428    5.86338803314722    2.91554636019427
C         9.45910700217996    5.44288281997165    3.44297098170149
H         9.42610338372236    4.59202126347147    4.09091534495519
N         8.33439683120169    6.10392596387629    3.03804216374228
C         6.99921805868575    5.77157343014083    3.47046420786212
H         6.94626207940057    4.69203936218862    3.62731867402497
H         6.30444065192161    6.04632803809396    2.67302430620737
C         6.63854688547968    6.50726207881764    4.75769811188965
H         7.32456250550247    6.23868608967019    5.55709146322252
H         5.63124325238915    6.24211861748307    5.06385353376154
H         6.68699690453125    7.58306667651006    4.60508897878074

