53
CSD_code = HIVJUR | q = 1 | S = 0 | Stoichiometry = C21H27N4Ni(1+) | MND = 4
Ni        0.59254867056596    0.43327559802533    3.74949255501788
N        -0.19282216970163   -0.64725601654705    2.22560666856696
N         1.06035214115310   -1.19506403055011    4.49760813613192
N         1.30539006427532    1.35584446526284    5.18975943176502
N         0.10179968434797    2.25029070529619    3.00244731089799
C         0.52372856252967   -1.91286298950333    2.29499227232955
C         0.56601135011708   -2.80931810778005    1.24881804844869
C         1.32695596634470   -3.96983589108268    1.34229539626505
C         1.37020434326762   -4.93421219544491    0.20308440366849
C         2.07603134703808   -4.19578138877750    2.50375299602625
C         2.94944419514167   -5.40410261812657    2.61218930614225
C         2.01635363681211   -3.29410021770059    3.55680803184869
C         1.20742714689510   -2.16040391173458    3.49045670352346
C         1.11748388085660   -1.45701535372965    5.79872000976699
C         1.01908389823174   -2.85870745322705    6.33074589917667
C         1.19729933539224   -0.43707888966728    6.74414717901687
C         1.34133437171306    0.91510271333096    6.44272603052597
C         1.45830019153822    1.85349421565885    7.61035006776778
C         1.67310162661095    2.65121961700562    4.79730074891314
C         2.66256631494379    3.43509611366843    5.38971970152035
C         2.93698534954809    4.71443384179121    4.92784932265626
C         4.00091868211951    5.52911787375000    5.59032317408424
C         2.22603568271979    5.23609205712854    3.83982431622487
C         2.50107726665285    6.61409917130765    3.33466091560422
C         1.28016452401018    4.43490351719690    3.20915189012478
C         1.02364746032278    3.16045205219536    3.66745353064530
H        -1.19528598451546   -0.82238079214675    2.35750166163041
H        -0.09431235970425   -0.26250983417972    1.28381720056395
H         0.02147054699221   -2.60108137197688    0.33822392927188
H         0.71776078398682   -4.61451669768079   -0.60449747095218
H         2.38406288322464   -5.02343044976506   -0.18503242138615
H         1.05822300436759   -5.92481858590602    0.53037928020140
H         2.35280119897314   -6.31232463534046    2.53828113692257
H         3.67679473754914   -5.42418469693396    1.80225980057898
H         3.48322593475212   -5.41689053636318    3.55767204581790
H         2.63860954262426   -3.46181171902150    4.41982727242337
H         0.40400543374796   -2.85215950483144    7.22749646177126
H         0.57772591845277   -3.53356910493712    5.60264659593064
H         2.00083203158547   -3.23442507613777    6.61351535401316
H         1.17751492486038   -0.71733757282402    7.78352238565435
H         2.47312553643759    1.85680331565408    8.00402530861170
H         1.18031699960714    2.86797650768959    7.33844070679536
H         0.80309550933073    1.50711548831131    8.40616999472290
H         3.25571485321534    3.03570343408739    6.19519692547809
H         4.46782770138169    4.97788366849779    6.40136129364307
H         4.77054700175791    5.80848096381505    4.87250908289050
H         3.58012285332490    6.44928989241919    5.99320703821993
H         2.33581731969686    7.34826059982171    4.12176891711113
H         3.53883420602567    6.70564717287190    3.01648005405226
H         1.85837896705138    6.85749141497818    2.49342952097977
H         0.75925606752890    4.80966940704646    2.33895280608895
H         0.19102458588680    2.37025732760279    1.99116699643525
H        -0.86071372158558    2.51847850748934    3.23629407585369

