42
CSD_code = HIVPEI | q = 0 | S = 0 | Stoichiometry = C17H16Cl3N3ORuS | MND = 6
Ru        1.44515333409412    3.56174640894988    5.99922116896972
C         4.22936711934455    3.18515647735514    7.14871505405905
H         4.02596563816996    2.12808065559395    7.06403994147109
C         5.44028609163687    3.62067051225476    7.64771412364323
H         6.18474669651817    2.90466172100429    7.95668060127972
C         5.67541683421477    4.98731688760540    7.74204379724308
H         6.60876321851336    5.36484224231114    8.12854555712395
C         4.68137956435602    5.84829984983680    7.32472200654478
H         4.82440626809648    6.91492525795781    7.37739295758790
C         3.48177631041557    5.33808509379034    6.82949791040394
C         2.38379887958604    6.16939686467955    6.36073001566439
C         2.33372563938011    7.55953045040793    6.33691036964176
H         3.15764621945168    8.15705835729709    6.68763028923244
C         1.18581094742750    8.16950369413514    5.84858973308381
C         0.11623919338260    7.40552804302457    5.39694727460653
H        -0.77189796096850    7.88525884343733    5.02288629821195
C         0.22607589948007    6.02051230482768    5.44555689161598
C        -0.77319901587065    5.04514698792580    5.02754496201654
C        -2.00795731056782    5.39403635196534    4.48322384353711
H        -2.26251911194051    6.43346766073430    4.35632778985226
C        -2.89425464038078    4.40311883648646    4.10918580786486
H        -3.85420659515243    4.65514078500938    3.68555981675735
C        -2.51645833823273    3.08093902998240    4.29253291867319
H        -3.16996831940581    2.26923914582282    4.01745044622895
C        -1.27553696476259    2.80377824389692    4.83973679166677
H        -0.95625324864967    1.78075284844639    4.99753774613175
C         1.86488449969469    0.47010575767230    7.77397301442755
H         1.19771733895300    0.98073480403085    8.46273356163714
H         2.89327246166374    0.61022155233179    8.08202198117969
H         1.61028777158501   -0.58137250577411    7.70803581492706
C         2.89767732142014    0.36775039178699    5.20495276115636
H         2.62758509537535   -0.67926398721511    5.12976683401273
H         3.85413519902441    0.49468823211838    5.69612308763810
H         2.92168319368110    0.82680494195113    4.22056993422539
Cl        1.08542729703638    9.88712897650296    5.80423329375614
Cl        2.35830931072554    3.38588052465608    3.84095825141552
Cl        0.53650724684511    3.52238688103250    8.16632284180915
N         3.25688838927139    3.99882471057850    6.74632999068417
N         1.34285923053914    5.43830212169131    5.91871224450806
N        -0.41557205845667    3.74800278580190    5.20293615123250
O         0.35420675548566    0.52101532514170    5.67037859298608
S         1.55912459902054    1.20079593295548    6.12822753129324

