32
CSD_code = HIVPOS | q = 0 | S = 0 | Stoichiometry = C15H10Cl3N3Zn | MND = 5
Zn        5.52491636289986    1.86075954825127    8.41022483618710
C         6.92073153281975    1.86083200378463    5.61273345826030
H         7.78567481865666    1.86084357839127    6.26114382908349
C         7.04665978224453    1.86082963567835    4.22984498116073
H         8.02175811839888    1.86083758641123    3.77016082731635
C         5.89181024057291    1.86081433181039    3.46587999318460
H         5.94298095647544    1.86081124689708    2.38711536386471
C         4.66178962548080    1.86080211378123    4.10441418896475
H         3.75486568075733    1.86079130221033    3.52215306034108
C         4.62655684532897    1.86080497099639    5.49711137773532
C         3.37812830381491    1.86079421780418    6.27971821211025
C         2.10497463286533    1.86078156412880    5.71047086604092
H         1.95440665424578    1.86077634008550    4.64455204275029
C         1.01033960940822    1.86077610940478    6.56310688974522
C         1.19320216394015    1.86078359246804    7.93848723448914
H         0.33863710687955    1.86078020298647    8.59322857918635
C         2.50021664527103    1.86079578060952    8.42498792329335
C         2.84205979203768    1.86080675609932    9.85825962025962
C         1.89095486101499    1.86079945116223   10.87627271940950
H         0.83602275793509    1.86078495621430   10.65573890234412
C         2.32069613888885    1.86081082267861   12.19389288391144
H         1.60101317778526    1.86080415681657   12.99909290909916
C         3.67982060286466    1.86083053730595   12.45835711368065
H         4.05295008693581    1.86083833295849   13.46979166035800
C         4.55937171438328    1.86083704494880   11.38381121097441
H         5.63078031850631    1.86085156626859   11.52768323467100
Cl       -0.58044327369641    1.86075979274752    5.91180027195422
Cl        6.37866938062230   -0.15794915874040    8.76027369936926
N         5.74953098775463    1.86081976609782    6.21689760175743
N         3.53502671909886    1.86080128184807    7.59618037784436
N         4.14742964292891    1.86082472669497   10.13203200500900
Cl        6.37896801287972    3.87926584119955    8.76038212564394

