45
CSD_code = HIVTOV | q = 0 | S = 0 | Stoichiometry = C20H22ClNRu | MND = 9
Ru        0.97550932289332   11.16684191707927    9.01926091828788
Cl       -0.72926602361733    9.53183716069780    9.03778739352281
N        -0.12598886772532   12.17660629699194   10.59514951448010
C         1.66601202824797   10.23008923270007   10.68973919230615
C         2.79102695779328    9.45315659641426   10.74552307359718
H         3.35233082704091    9.21800848069729    9.85009331009983
C         3.26346238786865    8.90424425706631   11.95961561078869
C         4.43164981049763    8.11784918586694   12.02337330277790
H         4.97646283334576    7.92111724537087   11.11030771641947
C         4.87141570373451    7.61272873216189   13.21547676856278
H         5.76903036313833    7.01209168670919   13.25550095293032
C         4.16157002146404    7.86788895909726   14.39806395886123
H         4.52206377876842    7.46065144314560   15.33179402227046
C         3.02167940390342    8.62285901736849   14.36696454649238
H         2.46806372236991    8.81921831107093   15.27486204543495
C         2.54458323448536    9.15764203229070   13.15421255915686
C         1.36326018005870    9.92627961709569   13.08327126465742
H         0.80416465290961   10.08070156557039   13.99470548889970
C         0.93533457393540   10.44115138910809   11.89156322864658
C        -0.35592986430593   11.20785282881319   11.71118814664104
H        -1.09737244967631   10.49298212906769   11.32687702119804
C        -0.89736869991027   11.82709538816540   12.99902091448326
H        -1.72950291055015   12.49810059901692   12.80114165675709
H        -0.12471713680499   12.36359962050743   13.54435651399282
H        -1.27037331169489   11.02859885633159   13.63397594256505
C        -1.39938223286510   12.62380297658849   10.02675544243473
H        -1.92795472539203   11.75894121052785    9.62157873957235
H        -1.21433908921117   13.33749121260000    9.22342530043396
H        -2.02724959608744   13.11295026172570   10.77803930386203
C         0.62894743210265   13.33303641563609   11.08440774417605
H         1.55298739617727   12.98585441925288   11.54899839245844
H         0.04920401206583   13.90253035604980   11.81697383064098
H         0.87128717505917   14.00080938254918   10.25831598376380
C         3.02769777724841   11.46757166809733    8.14494353591036
H         4.01994715539898   11.28083474018812    8.54002712400495
C         2.36551260380383   10.47047648278580    7.38889775095582
H         2.83882421997690    9.51242529626394    7.20587876730889
C         1.11288798657047   10.76147837883215    6.81314055848568
H         0.61785544169592   10.00966625166667    6.20647493022397
C         0.55752993985487   12.05700320127255    6.89671344958138
H        -0.35179456204821   12.29632887232143    6.36106379705112
C         1.20539977245230   13.02216687157026    7.67457951788386
H         0.81431718804272   14.03561816332086    7.70763707211651
C         2.45204005905592   12.74211631393929    8.29291689715035
H         3.00398150792575   13.53190497640596    8.79020679815667

