47
CSD_code = HIVVOX | q = 0 | S = 0 | Stoichiometry = C21H22N2RuS | MND = 9
Ru       -4.08070916246178   -1.02748272741831   -1.47775498969943
S        -0.49277697769345    0.70648261952800    0.79988175615496
N        -3.96482907505865    0.10592540184916   -3.33567373520550
N        -2.28121813867009   -0.21835152814737   -1.08427049841248
C        -3.03316358586208   -2.29671418505979   -2.68132910598059
C        -2.83429566251371   -3.63044384999551   -2.44671784518173
H        -3.16286226156006   -4.08959528058685   -1.52312282907216
C        -2.17691027789103   -4.46783542454567   -3.37709250040462
C        -1.98268230981377   -5.84428899806132   -3.14232680643798
H        -2.34070000755171   -6.26916696328641   -2.21485160935478
C        -1.35390230901507   -6.63033728766990   -4.06770717521493
H        -1.20981424410836   -7.68475477518987   -3.88006912939994
C        -0.88804182372208   -6.07601730722198   -5.26912319953632
H        -0.39245507655460   -6.71084830152325   -5.98934554291892
C        -1.05743337050774   -4.74300350573770   -5.52315123315940
H        -0.69649280801431   -4.30945957924652   -6.44555919187568
C        -1.70178013493722   -3.90821872383174   -4.58901847154649
C        -1.87710436536452   -2.52550878762673   -4.81017728354780
H        -1.47822926859078   -2.10578032943411   -5.72213416255608
C        -2.51539852034250   -1.74559819104879   -3.88654536557946
C        -2.67670929612805   -0.24543483905555   -4.00982256037108
H        -1.89070320856462    0.20895683478057   -3.38917590850280
C        -2.53427780854202    0.28003782145368   -5.43802640127017
H        -2.80678280749171    1.32996851295427   -5.50849596484267
H        -3.13313809113505   -0.29477544130948   -6.13991200559872
H        -1.49213886149061    0.19702824162641   -5.73274579651709
C        -5.09314810035817   -0.22849991309453   -4.20846009250211
H        -5.03263232409358   -1.28280811364884   -4.48286878083011
H        -5.08458508096917    0.38054703533444   -5.11757209849632
H        -6.03519907440099   -0.04274463317070   -3.69309021939950
C        -4.00912540751625    1.53223102593241   -3.00789392248960
H        -3.18192197747274    1.77390918031310   -2.33899998408659
H        -4.94855616021632    1.76696987910711   -2.50685820070161
H        -3.93865714679358    2.15620063109366   -3.90463766395988
C        -5.31690082416107    0.02353531742269    0.19589019455860
H        -5.29575851169579    1.01515903898039    0.62899549196024
C        -6.16410627428845   -0.27085412250360   -0.87788488672934
H        -6.83662614172790    0.49499417337824   -1.25571849253038
C        -6.27508710086023   -1.59553819538601   -1.37408980546540
H        -7.03022075685044   -1.83908048161149   -2.11426891172479
C        -5.49528057505327   -2.61734109416412   -0.80372548872352
H        -5.64624858178357   -3.64387064319104   -1.11983552650434
C        -4.61863516440854   -2.32908938224714    0.27318544663792
H        -4.08495281107165   -3.12615025946123    0.77788417798363
C        -4.50645647003925   -1.00362772121405    0.73155182217863
H        -3.86507216622374   -0.78542924294533    1.57985668094712
C        -1.54607989642631    0.13400411487136   -0.23089218408995

