47
CSD_code = HIVVIR | q = 0 | S = 0 | Stoichiometry = C21H22N2ORu | MND = 9
Ru        2.15217527688383   10.20813128647178   10.70954207479362
N         0.70344187215209   10.21746829702092    9.08487307466642
N         3.47685197595786   10.78696933133831    9.27270000133366
O         5.62044647219564   11.57696694629556    8.71102489279555
C         2.40298599527318    8.35075148005852    9.91268961592432
C         3.04628277577634    7.30517206927772   10.51902862431923
H         3.55471556106487    7.43674283651032   11.46573849734488
C         3.10065723784957    6.01650710060820    9.94011205371196
C         3.75387952792882    4.93698942460160   10.56902106661351
H         4.23765591535171    5.10575277982752   11.52116247935257
C         3.77751396549138    3.69871198182110    9.98952641867264
H         4.28035063314973    2.87681244282482   10.47902697119809
C         3.15090750222492    3.48291148482740    8.75328886058277
H         3.17905245240338    2.49852268946169    8.30861879538782
C         2.51370393442181    4.51181666425896    8.11628582099367
H         2.03301808712171    4.35248961125935    7.16086688696845
C         2.47311978833264    5.79837900927180    8.68845826586826
C         1.84353005198672    6.88778630996254    8.04910511560489
H         1.40216850275841    6.71615247381038    7.07802783410130
C         1.81550763823338    8.12146204949458    8.63703664951974
C         1.23936461190800    9.35931505371498    7.98444563501093
H         2.09071175948829    9.91938799459703    7.57184671457134
C         0.24942119730991    9.06561425243728    6.85731157701183
H        -0.25678967370196    9.96730966515857    6.52202913272165
H        -0.49141557880110    8.32769103975983    7.15483434623319
H         0.80082047827788    8.67062796369604    6.00891327526748
C        -0.58816201639083    9.69734578556004    9.54000809671880
H        -0.94573666401269   10.27171701751523   10.39418324667482
H        -0.46989724551422    8.65273389785833    9.83160025849205
H        -1.34351928325620    9.76705322107463    8.75113213101194
C         0.54214405434425   11.60034790579519    8.63300523455398
H         0.14945168087318   12.21086833252498    9.44638917748252
H        -0.15118107225742   11.67318701263902    7.78880784282962
H         1.51598727883828   11.99067780039982    8.33448001759194
C         2.03947010202648    9.44122418501823   12.79557856830179
H         1.99886842547512    8.43775395812253   13.20522990860715
C         3.28979895294726   10.09311851832353   12.64162622324087
H         4.21041716698456    9.59129122951275   12.91655744154108
C         3.31784638885596   11.42855001399582   12.19764251360743
H         4.27075979489279   11.94215099503657   12.11573389335356
C         2.12237157326755   12.15353948528337   11.99285447784714
H         2.15769854393864   13.20897761853701   11.75594260014805
C         0.89614000207738   11.49064179834600   12.12751548359946
H        -0.02923773154959   12.05370916072597   12.03293390970990
C         0.84218195034860   10.13836622739462   12.55348022331898
H        -0.11153076984996    9.67719899128911   12.78758243915004
C         4.57435090692200   11.16110460668146    9.05370163164711

