76
CSD_code = HIVWUE | q = 1 | S = 0 | Stoichiometry = C38H35NPRu(1+) | MND = 9
Ru       -4.10013582128477   -4.91157346702032   -0.89747981158582
P        -3.42387492556204   -4.12223051460139   -2.95502458473962
N        -6.21667961032325   -4.54649267876998   -1.28949785532792
C        -4.65146436311517   -6.55571391181153   -1.99422551053026
C        -3.96103647181956   -7.73481352729793   -2.03292183602159
H        -3.01563188771026   -7.85196219540087   -1.51765288783144
C        -4.43379470688163   -8.85031542063162   -2.76487776532650
C        -3.72281183961488  -10.06625983058514   -2.81707222702865
H        -2.79427781279114  -10.15264864165863   -2.27087802401449
C        -4.20048813629208  -11.11992466934489   -3.54593686694271
H        -3.65218285274822  -12.04909987926590   -3.58138595781621
C        -5.40654637723927  -11.00504268177469   -4.25424126723118
H        -5.76786633222715  -11.84775899512073   -4.82357219103576
C        -6.11705164123904   -9.83727763984175   -4.22331276886438
H        -7.04593547941301   -9.74301547619933   -4.76650014195917
C        -5.65133030541372   -8.73302724438923   -3.48118059121873
C        -6.35362570781874   -7.51042498525037   -3.43503842350299
H        -7.27394754461659   -7.43442364717360   -3.99325472052531
C        -5.87101331298571   -6.45173799953776   -2.71563055537305
C        -6.54191634746825   -5.09848017091346   -2.63930891520756
H        -6.03939108913531   -4.42759648457233   -3.35579742150046
C        -8.02684124796382   -5.12735871506412   -2.99558452890463
H        -8.51083092150836   -4.17940742061720   -2.77745387121188
H        -8.55078040668283   -5.92730722824062   -2.47983520937998
H        -8.11895478188773   -5.29632361015767   -4.06479572066161
C        -7.02659956815024   -5.23515199671023   -0.27483370376040
H        -6.83498994236529   -6.30842037854503   -0.32305573566468
H        -8.09142225908401   -5.05820087718091   -0.44480966133851
H        -6.78852496790384   -4.86520735748333    0.72077936016041
C        -6.49734236327988   -3.11047610802655   -1.22626818565226
H        -5.94827077782747   -2.59009752130395   -2.01229833167829
H        -6.19096812331701   -2.71296670778881   -0.25872159272278
H        -7.56418878034109   -2.90406640552469   -1.34811233272263
C        -4.26533507072771   -4.14072696493138    1.29032638114456
H        -5.05313707345106   -3.65575683441632    1.85960082231160
C        -4.15394121880309   -5.55028713474406    1.32493081610217
H        -4.85343111625776   -6.13685562608590    1.90944086499248
C        -3.04623166897713   -6.17335844535907    0.72635622112607
H        -2.90580993537406   -7.24112429657449    0.84721245499260
C        -2.07413179877178   -5.40121644071551    0.06555026171577
H        -1.17535733161921   -5.86322211699795   -0.32700916919948
C        -2.21813090157064   -3.99680954274455    0.01069353404642
H        -1.42153436018795   -3.40195294047104   -0.42638315225317
C        -3.28393965955966   -3.35707398404546    0.67312310501472
H        -3.31526384222593   -2.27781587567190    0.75290374925485
C        -3.94393251544449   -4.66003355765340   -4.61555148012717
C        -3.93949963897220   -5.94051701934426   -5.14062210759683
H        -3.62076167315861   -6.78063786441319   -4.54489204042750
C        -4.35722528604351   -6.13478032691545   -6.44819199992047
H        -4.36264538588341   -7.13153770592807   -6.86138845261537
C        -4.76548357321729   -5.06081619028233   -7.22373986432188
H        -5.08905336496106   -5.22567816742425   -8.23998106540940
C        -4.75306149600351   -3.77459168484193   -6.71040295364796
H        -5.05802847412047   -2.94305169494358   -7.32683162185161
C        -4.33992538903551   -3.56241799065919   -5.40306853309267
C        -4.24703316189536   -2.28285870749388   -4.71084931038660
C        -4.56220078279342   -1.02643476404085   -5.21008543268881
H        -4.93102948035221   -0.91759795697556   -6.21806712460046
C        -4.39479474603256    0.09140354888862   -4.40951382587144
H        -4.63631034559921    1.06783721709449   -4.80017936942536
C        -3.91844752745921   -0.02780690287520   -3.11195385265525
H        -3.79028375043808    0.85372905107441   -2.50267186269519
C        -3.60568152695887   -1.27588940240377   -2.59743701188111
H        -3.23475624657760   -1.37659858169492   -1.58677257976180
C        -3.76386128473975   -2.39699277513469   -3.39575387132991
C        -1.61707318339551   -4.27513204017017   -3.15005893792528
C        -0.76868503754318   -3.18573647142851   -3.30656620140645
H        -1.16660079520957   -2.18104118933880   -3.31876192735246
C         0.59293655077975   -3.39429202520490   -3.45119327504765
H         1.25206328174470   -2.54793126861080   -3.57198532170452
C         1.10855827184165   -4.67939924944668   -3.44542571368654
H         2.17019863898605   -4.83446159468091   -3.56066378071129
C         0.26153929687177   -5.76737313376322   -3.29543105665850
H         0.66330401693143   -6.76957195961995   -3.29750627456109
C        -1.09742556264048   -5.56772429454108   -3.14504620475232
H        -1.77303914514803   -6.40456070664160   -3.02617299802373

