78
CSD_code = HIVWOY | q = 1 | S = 0 | Stoichiometry = C38H37NPRu(1+) | MND = 9
Ru        1.38482607215084    7.70527500873571    0.25950902383914
P         1.58196954725438    9.99395054160634   -0.19003850537360
N        -0.04527513934967    7.24218486531449   -1.34339008537933
C         2.57820999051977    7.52111412886633   -1.40573365660046
C         3.91945928926888    7.25858930613286   -1.38072416185242
H         4.45626999024182    7.13167983828410   -0.44884483404564
C         4.68193085746978    7.15126265985852   -2.56766872671377
C         6.06985645731848    6.90720795368677   -2.54467005161944
H         6.56304549247696    6.77773651676728   -1.59161249182568
C         6.78224957946556    6.83677188687681   -3.70961661464011
H         7.84521098978452    6.64975480472603   -3.68626096980005
C         6.14032578584534    7.00650506782964   -4.94597883758629
H         6.71951090352956    6.94780194020157   -5.85486265625025
C         4.79433118651483    7.24092236097365   -4.99874191067646
H         4.29401224756221    7.36944442433380   -5.94740598481869
C         4.03244253297377    7.31733442608836   -3.81540866322098
C         2.64099592954928    7.54317542244157   -3.83041689321172
H         2.15612553663669    7.64936923308145   -4.78850639650963
C         1.93161287806595    7.63621605826550   -2.66457446532347
C         0.44020563794952    7.87552213064769   -2.60546772498757
H         0.27159152020891    8.95186603935399   -2.46734427222894
C        -0.29294123567448    7.45077507541843   -3.87772313419569
H        -1.37136552007114    7.46636542112102   -3.74632591295835
H         0.01601332146865    6.46449288499258   -4.21289850293421
H        -0.05553288213916    8.16406533268216   -4.66199475020355
C        -0.10262554748888    5.78396366150756   -1.51973503562608
H        -0.45916975750105    5.30237114401793   -0.61095853097468
H         0.88976135199183    5.40732681433642   -1.77294308897391
H        -0.79472269850111    5.51977507229702   -2.32302208147853
C        -1.38713489787338    7.72570141521710   -1.00979729154843
H        -1.69609056900213    7.33342487357960   -0.04053468123285
H        -2.12529147491626    7.40016944878040   -1.74837064486206
H        -1.38843944230100    8.81538158383594   -0.97290449229480
C         1.62796722797756    8.18327842619914    2.48452487347362
H         1.71858308641973    9.13174522828143    3.00603694143447
C         0.37229580976178    7.54446209472894    2.42047794603167
H        -0.49129924909819    7.98792029681296    2.89932112853352
C         0.27698938475523    6.29846789970197    1.79650931984072
H        -0.67493060706224    5.77550173276224    1.78957479132019
C         1.43448170571492    5.63699794910681    1.32275460523946
H         1.36627173543456    4.61941889443611    0.95592512841648
C         2.69344936705678    6.23330138140166    1.49156417938815
H         3.58550326218966    5.66993621346857    1.24495798522865
C         2.79804109763108    7.50886256621959    2.07172753631094
H         3.76886355143672    7.94025773953024    2.28537915004606
C         2.94180359619163   10.65906915439597    0.84298402673188
C         4.20053475126458   10.07058245647610    0.72607840199842
H         4.33330390608127    9.23985390298216    0.04848828100031
C         5.26634321528575   10.53025196421589    1.47723125499167
H         6.23881500932361   10.07391087398785    1.36566770957590
C         5.08573126248369   11.56972542422754    2.37545608940773
H         5.91575153905956   11.92895636428781    2.96381150286068
C         3.83165550174985   12.13667388331863    2.52250927572602
H         3.67932788534655   12.93589818139373    3.23200929786083
C         2.76355310951384   11.68706832719429    1.76432810806277
H         1.79373006360234   12.14145843385170    1.90125510317535
C         0.20309227808216   11.09000084879170    0.29123420188514
C         0.25382830723288   12.45567317676450    0.00722093011859
H         1.10066128402306   12.86063563985093   -0.52900706240420
C        -0.77351344638705   13.28549317460288    0.41405037727845
H        -0.72801686885908   14.34068174969476    0.19173434442596
C        -1.85739433369294   12.76892895001071    1.10897733710103
H        -2.65734480985714   13.42112619708457    1.42321950407738
C        -1.90907712242140   11.41720649025283    1.40232710724579
H        -2.74862477479271   11.01282762010101    1.94769691615854
C        -0.88081640648853   10.58379396875578    0.99609377605184
H        -0.91162728606945    9.52790158903902    1.22690071255623
C         1.99419439833018   10.65878901263267   -1.85103690099599
C         0.97116158096251   11.14820806143828   -2.66598538242624
H        -0.04181822977712   11.21107927717194   -2.28935813548179
C         1.24047268087842   11.57641492961565   -3.95220485351193
H         0.43894198606004   11.95867016543291   -4.56630178462914
C         2.53143790124319   11.51353092449961   -4.45080620004996
H         2.73939056155060   11.84174788905203   -5.45735072870484
C         3.55208874106076   11.03425310875136   -3.64864735815342
H         4.56157873413027   10.98494222691918   -4.02698017495856
C         3.28779517557728   10.60931028848497   -2.35856150080344
H         4.09955550381803   10.24468798016606   -1.75232073520563

