55
CSD_code = HIVWAK | q = 1 | S = 0 | Stoichiometry = C25H27N2Ru(1+) | MND = 9
Ru       -1.71074131344506  -12.96760380606137   -2.35168500651542
N        -3.79090410871064  -12.31320260094639   -2.29217091218419
N        -2.11779127448664  -14.33986537963023   -3.79497877750863
C        -2.54944830642176  -14.27101004783177   -1.02180728738113
C        -1.84875711700689  -15.03179742743279   -0.12918032338176
H        -0.76690563468005  -15.03405003813475   -0.11670907433813
C        -2.49767337102534  -15.87307715050479    0.80616803328358
C        -1.77950329974965  -16.65363589085222    1.73411939175105
H        -0.69998206382373  -16.60679076848884    1.73169262155866
C        -2.43837555458618  -17.45497197840574    2.62491061833078
H        -1.88332631497960  -18.04930085612154    3.33482209478449
C        -3.84050417018420  -17.51315076023047    2.62644340600895
H        -4.34276598514077  -18.15094502536593    3.33760197253491
C        -4.56361048573931  -16.76959827864026    1.73558489535313
H        -5.64295679539006  -16.81109104583734    1.73181760047625
C        -3.91329005934535  -15.93371518320644    0.80533107836281
C        -4.62594154878383  -15.15938349449913   -0.13424400690700
H        -5.70279256969518  -15.22947611023624   -0.13467784294947
C        -3.96690953377923  -14.35352043731192   -1.02151248973510
C        -4.65390226792337  -13.51984344520194   -2.08317759640151
H        -4.61535492472707  -14.08018877364921   -3.03151231066535
C        -6.11953232374907  -13.21713019906690   -1.77380207883323
H        -6.53355019228122  -12.48778319644734   -2.46438763164332
H        -6.25036310844321  -12.86541038366206   -0.75445583316562
H        -6.69354470046518  -14.13182129396480   -1.89083602201388
C        -4.18277060387308  -11.59482126891904   -3.50847307682756
H        -3.43468004752406  -10.83896840922434   -3.75082512244663
H        -5.14006119470887  -11.08218290619381   -3.37842280693882
H        -4.27970633804640  -12.28970365340534   -4.34190666793426
C        -3.92883732154671  -11.39730354688623   -1.15047124615116
H        -3.29791964864908  -10.52131414901904   -1.29742834309563
H        -3.63941181171175  -11.91095518154660   -0.23196420265103
H        -4.95989671528044  -11.04899127662570   -1.05123067960282
C        -2.19378383498176  -13.90398768274340   -5.06172818069105
H        -2.21460924963804  -12.83058854274427   -5.20980993033304
C        -2.24243603705591  -14.74653156691260   -6.15523915629325
H        -2.30354394254257  -14.33009427829112   -7.14786867310853
C        -2.20946122527824  -16.11869660890498   -5.95364710588054
H        -2.24620000302292  -16.80338049966025   -6.78529813641312
C        -2.12309990836908  -16.57699603955416   -4.64825230537901
H        -2.08822445926457  -17.63183067330814   -4.42996166049762
C        -2.07685306808659  -15.66679646321905   -3.60781261672063
H        -2.01726284137651  -16.00706626695005   -2.58184085534241
C        -0.20180038531704  -11.58518317350186   -3.58788329812850
H        -0.17475688022530  -11.21955868845014   -4.60611964425137
C         0.36757401003108  -12.83913953373744   -3.26819674442064
H         0.83248229511256  -13.42723713794263   -4.05509252108659
C         0.50009173172303  -13.25401097685013   -1.92931228123339
H         1.07419075553193  -14.14185349308559   -1.69162936040651
C        -0.01262824382443  -12.43191236584232   -0.89918675424960
H         0.15512412302407  -12.69234534399951    0.13937152826926
C        -0.64914287159683  -11.22456052512354   -1.21558305270448
H        -0.95612662603504  -10.55479144319338   -0.41980447487308
C        -0.74673498266612  -10.80728208171348   -2.56796872992570
H        -1.14118765023961   -9.82195265072115   -2.79316841950255

