70
CSD_code = HIVXAL | q = 1 | S = 0 | Stoichiometry = C32H35NPRu(1+) | MND = 9
Ru       -7.74260616412775   -5.35923069495035  -15.35020060952071
P        -7.60711139663640   -5.06413872781125  -17.63337788737542
N        -8.88843118611330   -3.52355069150453  -14.93589745287690
C        -6.29699493620645   -3.93057959073422  -15.27927192548402
C        -5.04988144532378   -4.04504167046271  -15.81587329793589
H        -4.78188211227086   -4.91371426877330  -16.40643061342984
C        -4.07647780600758   -3.03683556661995  -15.63322188300624
C        -2.78749871759514   -3.12701796371931  -16.19529663207867
H        -2.53427077742063   -4.00381468248712  -16.77465427992017
C        -1.87441128149003   -2.12706391392336  -16.00658228028606
H        -0.88783883857930   -2.20087931961192  -16.43897181752591
C        -2.20867158510499   -0.99562986942263  -15.24633675412676
H        -1.47431581208995   -0.21730735621117  -15.10594921036668
C        -3.45101761624171   -0.88108731560985  -14.68720830120377
H        -3.71086504222187   -0.01239064841278  -14.10011610153604
C        -4.41591868113369   -1.89362643562591  -14.86590903112348
C        -5.70875048072378   -1.80102972069590  -14.30739378043223
H        -5.94426950443380   -0.92875968719209  -13.71673594887828
C        -6.63115625008227   -2.79205252437668  -14.50877649848784
C        -8.03739365464149   -2.79403679065502  -13.94355022110525
H        -8.03837008396168   -3.41159868202002  -13.03197294746011
C        -8.54672533079888   -1.40461068465046  -13.56491837181499
H        -9.59782443890510   -1.42521417533534  -13.29049060914885
H        -8.39866917860425   -0.69093180067499  -14.37015330081299
H        -7.99413872712546   -1.05614491166311  -12.69687852823887
C       -10.19980133773305   -3.85430913603406  -14.36966550249387
H       -10.09201927625834   -4.31715701586878  -13.38966145000041
H       -10.72726125561486   -4.53385241810089  -15.04074564489162
H       -10.81990568925098   -2.96016181675501  -14.25476875930137
C        -9.10443880252670   -2.67222368836169  -16.11347015603998
H        -8.14416941461758   -2.27656035347645  -16.44054667521790
H        -9.77452496915272   -1.84089509745296  -15.87830869778240
H        -9.55167703091970   -3.25885737535729  -16.91910444322670
C        -6.86458029767037   -3.63964645835403  -18.44789277247225
H        -7.23448728460123   -2.63146885460091  -18.37461635265360
C        -5.76281886595198   -3.98904345834299  -19.13814122542034
C        -4.88093817559774   -3.04209191850393  -19.86988860152496
H        -4.77069489232854   -3.34153452560519  -20.91077295096753
H        -3.88947923884008   -3.03629960211918  -19.41829904705574
H        -5.28249975695055   -2.03360009766217  -19.83238564249350
C        -5.48413610889204   -5.42902844549020  -19.11475632957791
C        -4.32231991727632   -6.00387137140554  -19.84414103977766
H        -4.40974654489979   -5.80496799656007  -20.91141275629803
H        -4.26152629346933   -7.07847887194265  -19.69530667355607
H        -3.39600280791089   -5.54552231289837  -19.50085135047657
C        -6.37432168098910   -6.13610865636710  -18.39325358436617
H        -6.35321625342545   -7.20756977221940  -18.27803258008493
C        -9.09516659491486   -5.42215361450610  -18.62907661670650
C        -9.06392926389721   -5.33381035959577  -20.01669421630707
H        -8.15370772562238   -5.02947936157218  -20.51255147433337
C       -10.19816829682686   -5.63645706786272  -20.74641068801714
H       -10.17667227690841   -5.56925986949803  -21.82335386635950
C       -11.36191698471844   -6.02702100418745  -20.10066829720647
H       -12.24390790275847   -6.26234629089636  -20.67584489351744
C       -11.39402178004478   -6.11665337738051  -18.71901491617383
H       -12.29997084728869   -6.42171993068994  -18.21688624231961
C       -10.26094671807775   -5.81446305647088  -17.98497619692980
H       -10.26574356882097   -5.88232347862031  -16.90238549643759
C        -7.75428192165263   -7.60740220471739  -15.67312251182530
H        -7.80925752908597   -8.20336165550846  -16.57948641244664
C        -6.49217157046582   -7.23246884668805  -15.15607146314515
H        -5.58320051406612   -7.53635520975905  -15.66253946021065
C        -6.42115191437213   -6.54784241981466  -13.92962614883055
H        -5.45669723518976   -6.30607205067594  -13.49805400005863
C        -7.60007243557779   -6.24583120568895  -13.22599476764814
H        -7.53978201812075   -5.79691772691636  -12.24047563433408
C        -8.84770058552452   -6.70219471172945  -13.71577875477460
H        -9.73278367798872   -6.59757499916028  -13.09703654822320
C        -8.92851265368742   -7.41299182731290  -14.91421073383573
H        -9.86617904166647   -7.84586279411485  -15.23835014049544

