66
CSD_code = HIVXEP | q = 1 | S = 0 | Stoichiometry = C26H37NPRu(1+) | MND = 9
Ru       -2.22286382939540   -7.00588131175764   -7.15014923652456
P        -0.30035455136261   -7.66451923904071   -8.33963640022612
N        -2.41269823076800   -8.70367041043461   -5.73574329896659
C        -3.33832271640465   -8.33964833218532   -8.21822545010096
C        -3.57201388906858   -8.28310343846654   -9.56023079398947
H        -3.06964385554360   -7.55256616578916  -10.18022048858839
C        -4.47187716663634   -9.17066343094733  -10.19539287815616
C        -4.71174309642337   -9.13128570808937  -11.58337693339181
H        -4.19637591317965   -8.39345296316909  -12.18147684464332
C        -5.58168140471564  -10.01279482584889  -12.16283092886890
H        -5.76188948408881   -9.97886972925574  -13.22661591885310
C        -6.24909725605498  -10.96955687979618  -11.38252629566886
H        -6.93198086417128  -11.65694200425021  -11.85800199841963
C        -6.03858804732316  -11.02933241996547  -10.03306174071352
H        -6.55196070497554  -11.76201416731763   -9.42776691569276
C        -5.14812801077865  -10.13398264738787   -9.40589736358463
C        -4.92067896435228  -10.15540022257667   -8.01400018536006
H        -5.46984029475135  -10.87288805953551   -7.42388905332230
C        -4.04507127466960   -9.27993655699442   -7.42969320341546
C        -3.81320383687861   -9.18761070193158   -5.93568380887746
H        -4.46738644151759   -8.39168541941637   -5.54850065584463
C        -4.15951511166681  -10.47343333797562   -5.18501083116006
H        -3.84139771028707  -10.43008651713577   -4.14698507163131
H        -3.72033018626828  -11.34546277193762   -5.66104837356033
H        -5.23894046365834  -10.59573571517041   -5.18367962303135
C        -2.21222268833308   -8.24826402331482   -4.35525352561860
H        -3.00319427638985   -7.56574428602730   -4.04942648991260
H        -1.24574263060846   -7.74984035561728   -4.26902317872160
H        -2.20866556409654   -9.09171070416856   -3.65814026338117
C        -1.47134197057896   -9.80221145168265   -5.97535987793209
H        -1.65207638190300  -10.22257613939266   -6.96245614129577
H        -1.58282284393062  -10.58815699266688   -5.22354021228345
H        -0.45641458532259   -9.41315715006442   -5.91546606184539
C        -0.31066135551708   -6.96111088297446  -10.05631137478164
H        -0.89893455141684   -7.66322459935577  -10.65112459425769
H        -0.85729924185490   -6.01633496989340  -10.03504672538935
C         1.04588253717336   -6.74473365130271  -10.71980998384535
H         0.88889595316860   -6.41443238617517  -11.74450624605455
H         1.63024062769780   -7.65985052592077  -10.75641928054632
H         1.62576097663335   -5.98001149751846  -10.21023910891265
C         0.34782397513340   -9.35872372192977   -8.71861050525308
H         1.28041788948996   -9.21829498858250   -9.27185349459568
H         0.60277634021904   -9.85480121660583   -7.78151417006032
C        -0.61093150532737  -10.22337268110575   -9.53126817667923
H        -0.28475755939867  -11.26040443207834   -9.51050870158252
H        -0.63859478877286   -9.90698631157877  -10.56996330496566
H        -1.62501308598019  -10.16733829587538   -9.14083353248168
C         1.21286145558247   -6.88631024572254   -7.60787077049296
H         2.08916636219547   -7.22968139924590   -8.16103339585357
H         1.12107730813602   -5.80578397988018   -7.74785542272754
C         1.37500882230299   -7.19688832095316   -6.12585677595648
H         2.18701103273481   -6.61040979559800   -5.70200070125468
H         1.60595003999366   -8.24798462839204   -5.96905429466080
H         0.45769054864392   -6.95278334290472   -5.58776661765749
C        -3.75513778531744   -5.69746654543691   -6.01033916601909
H        -4.57035777102347   -5.93531835465686   -5.33471760613337
C        -4.00201657615150   -5.61083648224066   -7.38625950953466
H        -4.99461723056971   -5.80659117023170   -7.77569690033883
C        -2.97486514095463   -5.17956738858847   -8.25341868534952
H        -3.18516055999691   -5.02061309598501   -9.30472215368317
C        -1.71713372334508   -4.83999271046504   -7.71839635241357
H        -0.96062069788491   -4.40713295959671   -8.36627526060483
C        -1.50225286917617   -4.82506586810864   -6.31873712955555
H        -0.58303900954637   -4.42122695386555   -5.91451786625088
C        -2.50927979904473   -5.27657864305153   -5.47623321321930
H        -2.38082637171981   -5.21576387486580   -4.40182893530505

