69
CSD_code = HIVYAM | q = 0 | S = 0 | Stoichiometry = C18H44Br2NOP2Re | MND = 7
Re        2.12450754680898    2.28259378884339    2.19205967982191
Br        3.48006278112718    1.11014832582387    0.54006463357721
Br        3.18856484890271    4.28451248844572    3.35093243626553
P         3.16333751972940    0.85439060172462    3.96434066232298
P         1.37031496967680    3.79453668684797    0.33276754892781
O        -0.41646687821205    2.30264970185579    3.63679696922727
N         0.62192376034418    2.34694685330870    3.06942768116593
C         4.97862836935334    0.55685522563252    3.60700943144937
C         5.72806959079526    1.87427065998543    3.41587264904710
C         5.73276982404026   -0.31707200023837    4.60477489426322
C         2.46878474392357   -0.87387634228980    4.09704551945929
C         2.64448057135893   -1.64580205519993    2.79215850416736
C         0.98924101147001   -0.82715439975064    4.47114838573692
C         3.11437876590681    1.53182863416717    5.71128138309014
C         3.30757614020747    0.49789760141236    6.82054102835197
C         1.83520684245117    2.32108735855775    5.99234411891543
C         2.67043340188300    5.11934736832583    0.05566787357092
C         2.36973427308413    6.17610686528252   -1.00344634966103
C         4.04378439434810    4.50691443595325   -0.21775703067296
C        -0.15871638766992    4.79553602784014    0.70630193267166
C         0.02550617923901    5.59113130082481    1.99560518598334
C        -1.39684892105110    3.90911593015245    0.82240575887844
C         1.08337224202866    3.07082852653193   -1.37741622006591
C         0.47963332159131    1.66735294517727   -1.33123544644755
C         0.23975935065645    3.93162268394039   -2.31750570914598
H        -0.45800196482452    0.01746060545158    1.35514777657966
H         0.07949394913526    0.59713931110237    1.49059468358974
H         4.97367610927766    0.03263573365619    2.64262269736269
H         6.77437730869611    1.67087009609561    3.19294276618975
H         5.68392514378099    2.49814018369278    4.30663063212852
H         5.32680226516555    2.44713208378465    2.58285984991590
H         6.69847976748833   -0.58046865795850    4.17390756765581
H         5.92353907515222    0.22215969439081    5.52947111705537
H         5.20804642286081   -1.24417687540822    4.82365793916418
H         3.02306251849546   -1.38458169224357    4.89182021411070
H         2.23207187097278   -2.64790975053686    2.90001240918079
H         3.69093743529620   -1.74370108778313    2.51242086491379
H         2.11092868610392   -1.15303243485379    1.98153148391180
H         0.56590769091447   -1.82952898451059    4.42752905705151
H         0.83731432336355   -0.44345658784024    5.47569340708096
H         0.43735374943070   -0.19668732672437    3.77732942642709
H         3.95305609552867    2.24016797742803    5.73751278935241
H         3.45847875478339    1.02524305182955    7.76156833725140
H         4.16489978836153   -0.14631007347052    6.66065762161594
H         2.42367427847857   -0.12482034925109    6.93253988892029
H         1.88184671451133    2.73136721275981    6.99939290362699
H         1.71811320006562    3.15316413768790    5.30507426366225
H         0.95040175684874    1.69430101989328    5.92180302133368
H         2.72429468162485    5.62665272143431    1.02637741205160
H         3.08556362443882    6.98933654930989   -0.88830779957572
H         1.37478603649689    6.60067952779839   -0.89575051355437
H         2.49041130421637    5.77507155449527   -2.00733889267644
H         4.77170269564862    5.30122639296613   -0.37385616275458
H         4.39307955664999    3.91959583612187    0.62862311843297
H         4.03993338719211    3.87297076170472   -1.10385704980507
H        -0.29972746053646    5.48972904780065   -0.12942623687697
H        -0.88326623928042    6.14806086640913    2.21568967558559
H         0.84695897212599    6.29923110437151    1.92556671267030
H         0.21944360150439    4.92167337686619    2.83219059600531
H        -2.26107857344924    4.52528227470288    1.06547811646302
H        -1.27809386799563    3.17608692410310    1.61510297653155
H        -1.61211899425851    3.38257211319064   -0.10293940876011
H         2.09537613828089    2.98563184594876   -1.79695693550570
H         0.39927338494021    1.27545970840265   -2.34422773434781
H         1.09779396528554    0.97893662887382   -0.76421135525229
H        -0.51366327840734    1.67640868551836   -0.89023764060261
H         0.29837498174060    3.50897656746001   -3.32023444931646
H         0.57697172976666    4.96004688210719   -2.37081276904401
H        -0.80563884780695    3.92719413005870   -2.02027789862703

