50
CSD_code = HIVZOD | q = 0 | S = 0 | Stoichiometry = C18H22MoN2O7 | MND = 6
Mo        4.37632307125435    5.45339386468400   10.06407772224784
O         5.61201960119556    4.36707392047359    9.88633937720260
O         4.86982276463030    7.01512489296077   10.23971181574320
O         3.93347249694321    5.11718711297982   11.86099877550414
O         3.85489236982595    5.57543984279253    8.28610479552563
O         1.30195117432620    1.46559801102462    8.31278748056204
H         0.61043707305566    1.86491380858053    7.76699691457050
O         0.57721013925059    3.92457622794821    6.98016513127925
H         1.08594450427745    4.33687443242941    6.27303828725164
O         2.12314629003272    6.49852470289461   10.35325992626806
N         2.90869754855493    3.82817102564478    9.83161170780444
N         1.05646678800621    8.48499769438258   10.45479263762605
C         2.69120250276641    3.10974720030816   12.12240278261411
C         3.45557139695105    4.18805270965099   12.62513359731524
C         3.69437121879416    4.28277233409281   14.02788821673444
H         4.28715082790431    5.12125070616305   14.36566379733766
C         3.20739050279066    3.35003846952895   14.88389732279005
H         3.40005125043628    3.42668108812318   15.94482933450714
C         2.44167207822620    2.25080792422032   14.41883283316476
C         2.17829394740293    2.11657772249643   13.03027292598087
C         2.42493455109750    3.03458104587195   10.72596281442574
H         1.76392114179726    2.23371450666999   10.39788779818294
C         2.53701084140201    3.61302412927417    8.44718621738212
C         3.60688998618251    4.38530366150016    7.64225016650871
H         4.53378747737989    3.78040630027649    7.60868745890244
H         3.26004375594850    4.57543745136170    6.60848078229330
C         1.15137765309838    4.26865615134043    8.21798058376642
H         0.45227706033942    3.91435227896207    8.98163838548373
H         1.26673955627206    5.35526373950108    8.32611772399088
C         2.50768937395352    2.12353848882006    8.02443655068812
H         2.72498992624411    2.06689429703760    6.94912055984291
H         3.29472933845050    1.58706178764738    8.56086851366577
C         1.95203196863925    1.29361124281041   15.32562063346484
H         2.16779074875876    1.42212531945771   16.37657928398409
C         1.22222689861193    0.21989745578686   14.89163988033775
H         0.84922892060704   -0.51252976895360   15.59147347259721
C         0.96728013787099    0.07408356494415   13.52577920905475
H         0.39918769686162   -0.77628206151149   13.17833347516075
C         1.43258380181205    0.99415500301037   12.62033122492784
H         1.21870779381901    0.82912569362756   11.57661229880699
C         2.14345174403553    7.72745981082400   10.34433231966712
C        -0.25323658375743    7.89404003084829   10.61181070077444
H        -0.13714711850554    6.81270882968929   10.65139790881397
H        -0.89530254878993    8.16221307663107    9.77040474547909
H        -0.71639907686647    8.24402246270320   11.53609268188594
C         1.11334997160317    9.92382409887095   10.43303268393272
H         2.14271348407517   10.25028447988850   10.30690414352981
H         0.72213031644805   10.33143827704088   11.36807571676263
H         0.51229338453389   10.31207253151524    9.60747372638019
H         3.08563025145057    8.27921242316917   10.23878295728017

