103
CSD_code = HIWCOF | q = 0 | S = 0 | Stoichiometry = C36H62N2NiSi2 | MND = 4
Ni       -1.03306518124270    8.95642269879178    4.50349573584853
Si       -3.19743042146595   11.31330390829064    3.56720737482091
N        -1.46723717109258    7.36508354402862    3.26175276456644
C        -1.54387148616555   10.41442964629335    3.30688448806067
H        -0.75584895325396   11.16093847930600    3.17937336053862
H        -1.61205051165833    9.86370014995090    2.35939023925487
C        -2.96058333125194   13.14285426784987    4.07707669080340
H        -3.91813541795352   13.63580274984131    4.21605566797973
H        -2.41636066891473   13.69576670399096    3.31811851270512
H        -2.40602323797744   13.23254654008222    5.00501118911864
C        -4.32240872915551   10.49847400014024    4.89040949494111
H        -5.37719630046649   10.60099579124411    4.65088960582078
H        -4.16089363373532   10.95674860429355    5.86081692719979
H        -4.10360547339552    9.43896589543196    4.98928037290542
C        -4.13042587595973   11.33547217910039    1.88930969147388
H        -3.67035184473808   12.04147184743502    1.20498922372993
H        -5.16797638700267   11.63079495025534    2.01170951969090
H        -4.11736083518396   10.36411164053140    1.40461976971556
C        -1.85743526537014    7.44642329253876    1.91448389612772
C        -0.91429758151498    7.89730972760211    0.97538854919846
C        -1.29460132933152    8.00464973006100   -0.35243365409850
H        -0.58077067688298    8.33362693381672   -1.09018751072099
C        -2.58290070280360    7.69619568050005   -0.74820498520220
H        -2.86587354603962    7.78716628661518   -1.78631695187250
C        -3.50833859722082    7.27661331168849    0.18656826618042
H        -4.51416279899577    7.04820310383304   -0.13104076772192
C        -3.16728429703149    7.13479966184718    1.52433044374151
C         0.48903056071514    8.22555156865895    1.43217625582570
H         0.42633126280836    8.56034291134350    2.48257241842132
C         1.12663436704463    9.35465566468902    0.62602637390758
H         2.05052854875547    9.66743198151229    1.10662320422119
H         0.45816516775610   10.21045275406837    0.57467159066307
H         1.37026723234422    9.03440234545085   -0.38464030476799
C         1.37621791764928    6.97859183462806    1.37816607317288
H         1.42542357155404    6.59185488559458    0.36138121754716
H         0.99146792852606    6.19348854663068    2.02453033856394
H         2.38511986600110    7.22474930081642    1.70297050385326
C        -4.21576674698997    6.68393374451735    2.51697776759165
H        -3.75839115623726    6.60281521861822    3.50807069073826
C        -5.34047238568344    7.71704112699710    2.61122086038756
H        -6.06393379560065    7.41290748477650    3.36522702032817
H        -5.85830271634424    7.81368592703166    1.65999515801965
H        -4.93777480159147    8.68702466895960    2.88532486310297
C        -4.79230546356751    5.31697531299368    2.13495215952583
H        -5.44328921079442    4.95230543637056    2.92720556363471
H        -4.00441991606178    4.58550510994641    1.96961977793439
H        -5.37967836046118    5.38889333823249    1.22315449888869
C        -1.22680921377703    6.22056568874529    3.80104221529736
C        -1.30180590286606    4.90936536984595    3.07594230203137
H        -2.14422728224303    4.32241181166941    3.44091854428075
H        -0.39597133760053    4.32825062933293    3.24376603197851
H        -1.42807719246294    5.07035093930666    2.00740901376771
C        -0.83943200162678    6.22057370465322    5.20601059758776
N        -0.59895244544428    7.36509283864102    5.74527466796046
C        -0.52237284749207   10.41443170687681    5.70015188891488
Si        1.13118885331496   11.31330891321656    5.43984904512978
C         0.89433542345544   13.14286496277898    4.93000403976762
H         1.85188519920139   13.63581835898785    4.79102756184424
H         0.35011383115230   13.69576595049731    5.68897151221869
H         0.33977096004824   13.23256723143254    4.00207327438665
C         2.25617899128597   10.49850629859841    4.11664020242001
H         3.31096516110939   10.60105607783061    4.35615402783879
H         2.09464629446161   10.95677584884331    3.14623283757225
H         2.03740450179686    9.43899202535573    4.01777236533900
C         2.06417734484744   11.33544994549607    7.11775025281244
H         1.60409087988801   12.04142527578251    7.80208671983233
H         3.10172434035203   11.63078998589425    6.99536086699377
H         2.05112389959673   10.36407625196783    7.60241497829077
H        -1.31039819360748   11.16093731105554    5.82765454430774
H        -0.45420359820850    9.86370286488050    6.64764605269668
C        -0.20873476167308    7.44643372093933    7.09253955288708
C        -1.15185364144552    7.89731030603102    8.03165807770431
C        -0.77152087891633    8.00463725757305    9.35947341189043
H        -1.48533702922362    8.33360701145244   10.09724477885385
C         0.51678640192702    7.69618049513341    9.75521624505053
H         0.79978023877270    7.78714144084473   10.79332335621431
C         1.44220530022157    7.27660805845626    8.82041990835658
H         2.44803592477837    7.04819356636904    9.13800563761508
C         1.10112250967023    7.13480844685600    7.48266366125349
C         2.14958244105184    6.68394633645212    6.48999058165072
H         1.69218954030050    6.60285760874179    5.49890315588267
C         3.27430724161084    7.71703354822245    6.39575302291216
H         3.99774503324975    7.41290782801620    5.64172075493674
H         3.79216220743630    7.81363772641919    7.34696964303832
H         2.87162469000758    8.68703515926088    6.12168898334572
C         2.72609876235964    5.31696748453586    6.87197583362712
H         3.37707398788706    4.95230842160278    6.07971052218091
H         1.93820144019872    4.58550667920988    7.03729043146426
H         3.31347486387552    5.38885106820503    7.78377341554193
C        -2.55519493710983    8.22555823140575    7.57491321555681
H        -2.49253458413232    8.56031470665102    6.52450617388881
C        -3.19274649066650    9.35469892148662    8.38105458830941
H        -4.11665058794263    9.66748112656626    7.90048088016446
H        -2.52425740895155   10.21048322321974    8.43236112617885
H        -3.43635041863934    9.03448055370456    9.39173925438144
C        -3.44239987265972    6.97861459738200    7.62900225347216
H        -3.49156787166100    6.59190946016706    8.64580094613798
H        -3.05769078522205    6.19348581743474    6.98264490804058
H        -4.45131150476738    7.22477911241939    7.30423377478008
C        -0.76447235854333    4.90938441124025    5.93113398138954
H         0.07792534400943    4.32239676887908    5.56615746068193
H        -1.67032786879729    4.32829659193287    5.76333009563737
H        -0.63818220620930    5.07038383426082    6.99966287734313

