39
CSD_code = HIWCUN | q = 0 | S = 0 | Stoichiometry = C13H20Br2N2OZn | MND = 4
Zn        3.34778017608848    2.02142071304495    1.21460198387402
Br        4.36457236060389    1.07630864820216    3.12782606525689
Br        2.71295238760253    1.56486669456347   -1.02338998509567
N         3.81439640289325    4.10170630678786    1.12048156759984
N         1.47050718969904    2.87556363664732    2.14296923149132
H         1.62265977432939    2.86039573365094    3.15421878438164
O         4.91024675956766    5.28210425458064   -2.41881964462625
C         5.43368710893691    3.88120983972196   -0.60749939538392
C         5.61432106650791    4.21857198541546   -1.96667440103909
C         6.46112043073869    3.43883538811164   -2.74756089216675
H         6.59947588402658    3.66157349606254   -3.79312071958267
C         7.13092211970974    2.36235152704881   -2.19438959715986
H         7.77866419875648    1.76751303002310   -2.82025943458213
C         6.98591257830065    2.04788246220536   -0.85237340571930
H         7.52719049037166    1.21970900886972   -0.42292788149484
C         6.13754886856224    2.80226453020716   -0.06845019960164
H         6.06007725663462    2.60159292121171    0.99106380690742
C         4.96677730419004    5.60212076275708   -3.79124753118953
H         5.97934472858537    5.88345913307420   -4.09611747338430
H         4.30237137992819    6.45508077710336   -3.91909365663021
H         4.61170863802460    4.77077994729381   -4.40599112713911
C         4.48800515969251    4.63372802981085    0.18175420685000
H         4.34185257227568    5.68224378885345   -0.08925051208113
C         2.86207191803990    4.87961042768883    1.86213643172508
H         2.84595846571789    5.92635004962268    1.53200808925130
H         3.15432105830871    4.84089175094389    2.91754952790789
C         1.46500959438916    4.27037839061804    1.70600664372877
H         1.18241612795107    4.29062254571347    0.64871975263773
H         0.75411273854834    4.88561071908983    2.27151661543872
C         0.21514729476025    2.14887941494105    1.88179880256007
H         0.01995950517894    2.22235487141604    0.80529696004903
C         0.41498980617938    0.68268557455520    2.25238620812384
H         1.21999225121120    0.24009172836612    1.66601664731233
H        -0.49106669741237    0.11904553442859    2.04944395895792
H         0.65882195695852    0.58240131769892    3.30867267785033
C        -0.96954200534209    2.72959122064974    2.65497435517783
H        -1.85165997301370    2.11972812431344    2.48235727012867
H        -1.19838450218658    3.74392209653115    2.33730372019265
H        -0.76064237531414    2.73285361817051    3.72396254947531

