69
CSD_code = HIWCUL | q = 0 | S = 0 | Stoichiometry = C28H36N2NiO2 | MND = 4
Ni        9.64491216482862   16.09041752757992    1.70075912772098
N        10.93517329718302   14.77377066144741    0.87299196491466
O         6.96563964313432   16.08883818285952    0.55170685975576
O         9.39521044400687   16.09195333162675    4.60660366665302
C        11.91015298203669   15.37736792945996    0.27796150257730
H        12.69617942081136   14.83052652083543   -0.24027515625679
C        10.85209554331780   13.37038001420001    0.77459997898052
C        11.30604543390141   12.56687840132530    1.82566344789203
C        11.22522206538756   11.18899769332301    1.68944727780578
H        11.58128449310292   10.55380936764129    2.48592104934100
C        10.70452607439911   10.61703839954020    0.54476984333542
H        10.65845080416853    9.54239474195193    0.44932645391128
C        10.23460136967634   11.42244941952482   -0.47478147962176
H         9.81958344570408   10.96800525271708   -1.36122649774584
C        10.29438716135421   12.80473995026997   -0.38028685600613
C        11.88112078348762   13.18288471057990    3.08031744857871
H        11.77221939961937   14.27227907609393    3.01701460441802
C        11.11098859894140   12.71502439919923    4.31621767692983
H        11.46647087489587   13.24195658657311    5.19908377677026
H        11.23830826276278   11.64813809888996    4.48073124032447
H        10.04978732757927   12.92161856646020    4.19447408661990
C        13.37109940186089   12.85946418314388    3.20566750330334
H        13.78560938243031   13.33552945974748    4.09162135197775
H        13.91590141440140   13.21825554161465    2.33416224592381
H        13.52710394393976   11.78634195424689    3.28744228125567
C         9.74429989457888   13.67199295238482   -1.49143261773336
H         9.72844807842013   14.71409928958904   -1.15242812255718
C         8.30201228198264   13.28853638117489   -1.82811058809651
H         7.88373371659793   14.00343930623367   -2.53370535218100
H         7.69213714770690   13.29611822227657   -0.92747273833748
H         8.24696382830788   12.29925348763214   -2.27458754349389
C        10.63352831518662   13.58708655954942   -2.73382562780886
H        10.23848783663145   14.22352003690530   -3.52289018463125
H        10.67750596153027   12.56561017139241   -3.10452927454195
H        11.64751780558083   13.91091754783713   -2.50639589990810
C         8.04223685008444   16.08955121738600    0.93542151038181
C         9.56174154624568   16.09115415944255    3.47548618922186
C        11.91008122859338   16.80385695079167    0.27801899689994
N        10.93479739533011   17.40727674929657    0.87272546899964
C        10.85169860675679   18.81070004256912    0.77461162604551
C        11.30653436668609   19.61408925425566    1.82536855157522
C        11.22567375638911   20.99198754037327    1.68930064942307
H        11.58238787499256   21.62710278253438    2.48554124816880
C        10.70412546699064   21.56405211111173    0.54506690879641
H        10.65806389359099   22.63870534828085    0.44972388832743
C        10.23334135635689   20.75873878727761   -0.47416963301137
H         9.81768972549360   21.21326340607629   -1.36027458466993
C        10.29308722401445   19.37644395479622   -0.37977772064476
C         9.74230138174695   18.50918252011548   -1.49056792506821
H         9.72618426704844   17.46716277496271   -1.15128263420313
C         8.30005938833607   18.89304408829494   -1.82694055165427
H         7.88132415038719   18.17805140637811   -2.53217355985444
H         7.69045574695207   18.88595924970638   -0.92611568668057
H         8.24521488876584   19.88219360343160   -2.27373942327511
C        10.63122622939729   18.59349298543181   -2.73321927446314
H        10.23571508334511   17.95708594523708   -3.52207053323104
H        10.67552141564946   19.61489395217291   -3.10410054854392
H        11.64514124791560   18.26928371533127   -2.50599648672567
C        11.88242426690689   18.99798188170876    3.07960201728861
H        11.77331742185204   17.90860420013996    3.01638174905754
C        11.11325532209758   19.46596480739981    4.31605945854577
H        11.46914598954046   18.93882879057388    5.19863912515155
H        11.24103628939191   20.53279214083609    4.48059806164606
H        10.05190425102095   19.25974285171048    4.19500330326092
C        13.37253868879043   19.32118364857526    3.20389784647436
H        13.78759164123626   18.84511639074479    4.08959674131786
H        13.91668571529508   18.96225480880577    2.33204063085443
H        13.52875588702792   20.39428866671956    3.28549147771849
H        12.69623283630632   17.35083534170830   -0.23988233721032

