67
CSD_code = HIWFIF | q = 0 | S = 0 | Stoichiometry = C31H34IrP | MND = 8
C         5.76923647201033   12.20267388245175    1.31173180578328
H         6.15570822793632   11.35809569379179    0.76430824567011
H         6.00626476690057   13.17696434841595    0.92063750519460
C         8.88856374893506    7.52723828950772    5.79370637606671
H         9.31573506947134    8.38923795429103    5.30179848656152
C         9.63080202413016    6.85678982917445    6.74658893267686
H        10.62192039999929    7.20665219356943    6.99794219077826
C         9.10846938043288    5.73997118095777    7.37764894767579
H         9.68663874898594    5.21616142030113    8.12439287696746
C         7.84144650807910    5.29862364337499    7.03894630410446
H         7.42759397031713    4.42359045622875    7.51927809204555
C         7.09582117475289    5.97187003031160    6.08700062265488
H         6.11413917797462    5.60361164289744    5.83499952347399
C         7.60852620465388    7.09558261357437    5.44909884086151
C         4.59054129730762    6.26085882662791    4.08683487706620
H         4.37025460372086    6.60029587899200    5.09014319145451
C         3.79020298024240    5.30697921671206    3.48763621205891
H         2.96561633747337    4.87428153213482    4.03566931522018
C         4.03495240528285    4.91899625855394    2.18019128432899
H         3.40887788386371    4.17633024064025    1.70816255442267
C         5.07268960483623    5.50366344376638    1.47534165709785
H         5.25362123589213    5.22290739393784    0.44773868439639
C         5.88222969860296    6.45204710593339    2.07676996949319
H         6.67985293998199    6.90546425596041    1.50655327612524
C         8.85343813135743    7.41417427187037    2.66470402180162
H         8.74602549015231    6.42038635423547    3.07833574594428
C         7.97529834314639    8.42329287188285    3.05618106007685
C         7.66662471982462   10.32301145406322    7.51449573772519
H         7.71328106671147   11.25944496861101    8.07358717551591
H         8.63768314397152    9.83522757253176    7.61977884229700
C         6.58583765290536    9.39922726901627    8.10872698096168
H         6.93217774004447    8.36524221965419    8.04406918778493
H         6.44161033957555    9.62523611784013    9.17144556320157
C         5.25623655672544    9.49080408356475    7.38775451816152
H         4.62692128884185    8.61903926641139    7.56802981281102
C         4.58584359345112   10.71672237870737    7.14115105139655
H         3.49921551315397   10.67443856772251    7.14422567817067
C         9.85786518553340    7.68206302331164    1.75455787002921
H        10.53390210597575    6.89471084878497    1.45347414705324
C        10.00061011508142    8.95726486114705    1.22794062983081
H        10.78820885426154    9.16238462905206    0.51772519018322
C         9.13511310759121    9.96482295283037    1.61613754334506
H         9.24361162265773   10.96053338349441    1.21137211542035
C         8.12723353848144    9.69792827299179    2.52748535557424
H         7.45007068149217   10.48220939825866    2.83410374680555
C         5.66844934268237    6.82094287618146    3.39995561411437
C         3.54429547856295    9.35288166398154    4.62490460296028
H         3.55658252104401    8.51548232886154    3.92954339104327
H         2.69595910627182    9.28987169976755    5.30259263041168
C         3.78270264691370   10.63812824096715    4.03269221089987
H         3.29350411169592   11.52203917411960    4.42826894564660
C         4.67815645511764   10.77442205585326    2.98411059510360
H         4.96103245339784    9.89132485297288    2.41704678491786
C         5.02912324479591   12.04244794221160    2.41197514641141
H         4.65838753103469   12.91799293228735    2.93308435665532
C         5.13492959292739   12.05056411631045    7.61359009452585
H         5.71278458423197   11.89972855994080    8.52676374199448
H         4.30484810588212   12.71358044036646    7.86649644361014
C         5.99669077890259   12.72157381018697    6.53427634169584
H         6.75506413224732   13.36721023501552    6.99314296627526
H         5.36087109295947   13.36225619056812    5.91976121068759
C         6.67831572253749   11.72985647871194    5.61865478085460
H         6.93928648365291   12.15910429231835    4.65169920686712
C         7.42879957512705   10.63812055930105    6.05091073180326
H         8.23205160790751   10.31781295009852    5.39154633008822
Ir        5.45515426334319    9.96398930920532    5.32892665182765
P         6.63469751603822    8.11251719268018    4.26765547533507

