53
CSD_code = HIWGIG | q = 0 | S = 0 | Stoichiometry = C17H33ClIrP | MND = 6
Ir        0.95783508955841    6.20147928825870    4.46891209308602
Cl        0.52911357705956    5.41146843251363    2.33836697741370
P         1.93046643696207    8.05977577613935    3.38826886588060
C         1.99182796409654    6.39717684989631    6.30210486557620
H         2.85141352955431    7.06308852375314    6.24132211897614
C         0.72689522280606    7.00126829377787    6.43444843401231
H         0.70897490838926    8.08718039088478    6.44135998818186
C        -0.39870729686300    6.37872192523798    7.23873011214029
H         0.02588944872610    5.79875137532839    8.05952938761976
H        -0.99993274273021    7.17292289878251    7.68552911714450
C         1.34019651578803    3.94944109763552    6.57027586106075
H         1.86271646638569    2.99367532904718    6.50124916385963
H         0.60827782093452    3.86010384989374    7.37427947200467
C         0.61552902648210    4.21033526198227    5.26988194668305
H         0.85483850806006    3.51925405014100    4.46613945070718
C        -0.59268152787237    4.88537207254629    5.19210668819191
H        -1.24460279626401    4.65851043655273    4.35140640672402
C        -1.31223075986285    5.49447067848238    6.37106328058970
H        -1.75463156852417    4.69619000954201    6.97659535376651
H        -2.13484338158950    6.10129808396002    5.98754566505536
C         2.30291765834832    9.56772618291977    4.46267016834098
H         2.64352401558380    9.12107311260022    5.40507129176252
C         2.36121614756609    5.05466367414734    6.89397383691752
H         2.48016468646393    5.15398470853325    7.97875414730626
H         3.33513751821616    4.76846174471030    6.49064566362736
C         1.01556180078910   10.33427444985380    4.76247939120309
H         1.14501197063467   10.95657618181017    5.64759935911611
H         0.18928344577194    9.64939605242240    4.94103163266735
H         0.75313821759362   10.98715271113980    3.93426346272950
C         3.39395062572156   10.53070243134748    4.00038360669353
H         3.43790174534920   11.36863757896895    4.69622668368094
H         3.19243722935890   10.93022790370216    3.01146247852713
H         4.37272493250443   10.05856341213756    3.99550330257069
C         3.61285818917971    7.70314425616417    2.64861403428493
H         4.06512170803307    8.65249087233877    2.34384668444147
C         4.47367858138359    7.05460132943204    3.73067857312265
H         5.47528841507889    6.85478348466349    3.35242778060312
H         4.02439218959320    6.10970643549445    4.03296744514897
H         4.56266182134807    7.69301803289151    4.60767676766212
C         3.53690013142639    6.78428096091432    1.43338584368429
H         4.53710104787578    6.44208466067729    1.17078768205936
H         3.12098827724013    7.29518154978667    0.56881123327755
H         2.92142764376188    5.91404563384259    1.64744255042015
C         0.95454759562113    8.63041319764058    1.89881830700633
H         1.04200979539642    7.75968688643743    1.23889987391446
C        -0.53012122347639    8.76954830326338    2.23136003671303
H        -1.11457935622459    8.75638433586846    1.31295778937614
H        -0.74837186110038    9.69467325865050    2.75681562512996
H        -0.85034695861780    7.92907046292542    2.84714605137249
C         1.47634771681509    9.85680605823291    1.15919626151812
H         0.93910973707509    9.95994585533031    0.21685136438348
H         2.53598757895554    9.76820953157034    0.93086139729234
H         1.31238453556218   10.76680012519908    1.73137442480250

