46
CSD_code = HIWGOM | q = 0 | S = 0 | Stoichiometry = C16H28IrP | MND = 8
C         5.70022160208999    2.33204277890497    1.18711807621220
H         6.68043322619642    2.02183711559233    0.82955411200541
H         5.08432192165844    2.68305496090483    0.36108227265091
C         5.71924241761797    3.19640563679030    2.34262394689143
H         4.94330310316030    3.94788312792515    2.44773283690194
C         6.65052314479461    3.08488151318189    3.34721664586556
H         7.53476094632974    2.47691417591343    3.18739918164602
C         6.61237161218841    3.85227769384678    4.55469217583993
H         5.75999759338073    4.51115601783738    4.67375684026310
C         7.69339676065963   -0.54003885345199    4.32877417508066
H         8.11467602091662    0.41408386099119    4.63838652193176
H         8.49250333743452   -1.27322693211865    4.22641162780832
H         7.00091433468754   -0.86967648282966    5.10006866064943
C         2.71095914740128   -0.93922393322622    3.70029985226891
H         2.78234913582113   -2.00514268816382    3.92886902510725
H         1.85170449553943   -0.55261824703052    4.25013896751968
C         2.49671471622871   -0.76807170175607    2.18445468735808
H         2.95003183255168   -1.61439180134701    1.66371591375146
H         1.42566999236984   -0.78421938974436    1.95286966335437
C         3.11386086538781    0.50124618674600    1.63395525463286
H         3.25276449887376    0.45907718022496    0.55374998644920
C         2.89465227384393    1.78630407190177    2.19700700829245
H         2.87991731063381    2.61213342048360    1.48857341302905
C         6.42597325528526   -2.07429221029683    2.33744953017145
H         6.05135319113076   -2.12447899503203    1.31739340206220
H         5.65368054305578   -2.44996670646433    3.00308246170540
H         7.31730903308534   -2.69395680832225    2.42866282977436
C         8.24517812353873   -0.10164992440753    1.62235733344002
H         7.90723867409868   -0.12850369272235    0.58832887229378
H         8.97012387179698   -0.89868387486683    1.78422928683115
H         8.72403577690642    0.85774900099704    1.80625189433338
C         7.53191534815844    3.79447852685068    5.52193490889556
H         8.39237959322821    3.14908897629114    5.44445129961627
H         7.45987146349772    4.38725082226199    6.41704786746787
C         1.98207183264597    2.01225139361183    3.38996912147844
H         1.50363084569515    2.98957480244599    3.29739763789491
H         1.18496104785848    1.26710262102663    3.38570356561908
C         2.76029469333244    1.96651227582038    4.71510894249387
H         2.10650769039280    1.63918713334073    5.53250480050081
H         3.10141017198140    2.97385985309105    4.96164889635607
C         3.97471223091468    1.06919936207097    4.65800869409392
H         4.74357962753808    1.33509843884661    5.38315949782913
C         3.96402044558164   -0.24079357957786    4.18861818522049
H         4.70515152330826   -0.91621012781156    4.61048328665350
Ir        4.85130220860527    1.10953221520453    2.68710821128368
P         6.78950851862557   -0.31273721392534    2.73574862846561

