120
CSD_code = HIWJII | q = 0 | S = 0 | Stoichiometry = C43H64FeN4O8 | MND = 5
C        -1.11053010128609    4.58358515255432    3.86536528555678
C        -1.75558559940322    5.36296266824074    4.86504083181345
C        -1.30931058092236    5.37619120849684    6.20093310517319
H        -1.85412971563949    6.08266424353304    6.82313427091333
C        -0.03218266928400    4.73420255143779    8.07189190744524
C        -0.77875740238450    5.39725870954988    9.05174876294958
H        -1.67967743297940    5.91691005240088    8.77312179476185
C        -0.38396209046777    5.38647307628528   10.37425213202294
C         0.77525110733427    4.66687966476957   10.75139382411499
C         1.50794499951826    3.99957781134932    9.79111052233833
H         2.37775877775039    3.43900653465678   10.08941576905243
C         1.12754173033818    4.02744805886839    8.44464607603336
C         2.92754726179355    2.78519358094915    7.57169495733602
H         3.42576030095915    2.87747215420367    8.53112075626264
C         3.63842743139058    2.03537052155502    6.61704031437455
C         3.19001282180334    1.90871984691415    5.26874791754762
C         4.88233740503217    1.40924218850615    7.05354139206964
C         6.35592905982106    1.07284378576555    8.87581913411883
H         6.63138836390991    1.69062698808402    9.73434528114209
H         7.13877776737670    1.12691708022226    8.11177087083060
C         6.13730268534952   -0.37570371698195    9.29299926293320
H         5.32642648026902   -0.44181890396870   10.01494558167079
H         7.04623763692062   -0.76953421422585    9.73932433127079
H         5.88360129429379   -0.97235378221925    8.42065114387505
C         3.98522277925015    1.11206018476695    4.26837666747516
H         4.08189656718220    0.08047104468388    4.59621202854811
H         4.99142058426928    1.51221415953130    4.17595093085462
H         3.47689519548012    1.15472517594458    3.30805401172029
C        -1.57682795585406    4.59190979947117    2.43027379229848
H        -0.92909718419508    3.93110659586593    1.85880579240865
H        -1.53067046111327    5.59577030396001    2.01777734743108
H        -2.60564348700634    4.25036606658819    2.36090101164403
C        -2.89552225841048    6.25395505896444    4.64833177500712
C        -4.48401656645438    7.16079032939223    3.17701106613369
H        -4.19536410180169    8.18264179906058    3.44986543675943
H        -5.30620565462211    6.85870919165864    3.83653452088005
C        -4.88722245703709    7.07332782075700    1.71649698098368
H        -4.05835392222991    7.37264293712960    1.08069757015964
H        -5.73289720478617    7.72911983842934    1.53034210326899
H        -5.16566499425743    6.05337162992670    1.46518989578347
C        -0.85414105382243    1.59465478405873    7.28661441357662
H        -0.68824758587489    2.27780647023625    8.10701758126099
C        -1.61960256555411    0.46920002253511    7.48542062129055
H        -2.03543685344626    0.29831276062921    8.46343565787073
C        -1.84537373400499   -0.42945421721446    6.42691270408362
C        -1.23893424829089   -0.07940162917349    5.20503227743536
H        -1.34877336234363   -0.69806128251740    4.33118704316022
C        -0.49074274857979    1.06828761858577    5.10759739600403
H        -0.02243011822501    1.34169652437684    4.17419784483265
C        -3.20087606769918   -1.86481941961374    7.84325419654087
H        -2.44224171856840   -1.99946280666383    8.61982782987798
H        -3.76834493281731   -2.78790900983389    7.75911482154962
H        -3.88495190978040   -1.07128121735339    8.15702983188976
C        -2.78571581841304   -2.44972419258482    5.45819704237906
H        -3.29802274379257   -1.94796735761830    4.63210352978256
H        -3.39355094346807   -3.29447177311713    5.77155730119319
H        -1.82884573096855   -2.83446341450691    5.09421369685290
C        -2.10440587103557    6.88032077217801   11.09393991210658
H        -2.97458770653086    6.29836672983728   10.75773720770586
H        -1.82677845801798    7.58076599263566   10.29660102708093
C        -2.44329748514535    7.63698838137822   12.37579259566114
H        -3.36507716909391    8.20021081102806   12.22048379504623
H        -2.61716384859599    6.89838650832110   13.15985877946668
C        -1.31768043982009    8.57717265575153   12.81123558807790
H        -0.37301054367341    8.03403864399053   12.75259742669908
H        -1.47767171893977    8.85831316282912   13.85481428637518
C        -1.23869028459268    9.84757931439168   11.96723420347140
H        -1.06054898994666    9.59024644184208   10.92146550747180
H        -2.19588334858787   10.37326018773957   12.01906879514867
C        -0.12760474287935   10.78138505686413   12.44214566359348
H        -0.29440929536199   11.02501336739362   13.49318698336426
H         0.83271028856391   10.26619883619079   12.36555126567688
C        -0.07782844295504   12.06409038212201   11.61435384991648
H        -1.03021053465674   12.59171104994184   11.70800170887957
H         0.04591710920079   11.79442137710935   10.56236423701879
C         1.05892034940721   13.00489545123174   12.01534244838967
H         2.00055386762308   12.45238596542657   12.01375269156100
H         1.13891407884346   13.79474902663617   11.26436101071816
C         0.85211146369207   13.65021555713241   13.38065625740250
H        -0.08919059407857   14.19543017306840   13.40487581495930
H         1.65828282104582   14.34882741385913   13.59335606687201
H         0.83626795634720   12.90377280579976   14.17055957484030
C         2.31269597486146    4.21498901209134   12.52084917098492
H         3.12057220310557    4.72857793503990   11.98209146650584
H         2.40707218473546    3.13474602055902   12.33579987437974
C         2.41396427926962    4.48163271888883   14.02232022880814
H         3.41846577857589    4.20796602700694   14.35152906009368
H         1.69759059592182    3.83698588953984   14.53437383214699
C         2.11042282928693    5.93330281215150   14.39466672241892
H         1.10216119760075    6.17235253353742   14.05495611967646
H         2.12918069782840    6.01742638281139   15.48397489650988
C         3.09580445509387    6.93774655759756   13.80196145797527
H         4.11908948582028    6.62055778771399   14.02080280620056
H         2.97930252148735    6.97007964128500   12.71741779784193
C         2.87238221256674    8.33933323477783   14.36560210400980
H         1.84022963286770    8.64336899062815   14.17633058607242
H         3.01521522912834    8.31926245083609   15.44900052935451
C         3.82295125853753    9.36532404668552   13.75350352778581
H         3.66226424534091    9.40829319585277   12.67327114120222
H         4.85507081050000    9.04631791820034   13.91926922342468
C         3.62526299639040   10.75747553548405   14.34799139387321
H         3.78656547265769   10.71449675158474   15.42770185674444
H         2.59449757447819   11.07557735441426   14.18082966219841
C         4.57618948262296   11.77866103058549   13.73609656582883
H         5.61054927621108   11.50016948055036   13.92663693736278
H         4.40232232960968   12.76559348111133   14.15849436224191
H         4.43369701785971   11.83699203435980   12.65891876418653
N        -0.34576660250730    4.66216276940874    6.72050980050393
N         1.76695317070344    3.36686221230916    7.40254064943487
N        -0.28234731069403    1.91861350103321    6.12172233002763
N        -2.59424605224480   -1.55325468773532    6.57207045785227
O        -0.10913822179022    3.86436787849599    4.10482328551765
O         2.14836653808552    2.45788649542888    4.83545610931243
O         5.62777705090157    0.73036177029307    6.37845003542076
O         5.16591391399902    1.65995771037743    8.36450544368906
O        -3.37537109261052    6.29225892881795    3.38821141255878
O        -3.40375193418609    6.92627749573779    5.52750651128512
O        -1.02592143004077    6.01815597432012   11.39090916146260
O         1.05942070821886    4.68772043986215   12.08084163306458
Fe        0.80402677907141    3.49299557489845    5.77553643669441

