83
CSD_code = HIWJIH | q = 0 | S = 0 | Stoichiometry = C32H44CdI2N4 | MND = 6
Cd       23.56839246279898    9.36288210144041   -0.00030059718239
I        23.31776049700974    7.61520297274889   -2.08007280359898
N        21.79779455403798   10.94692412889298   -1.10034162742665
N        21.66968927356435    8.03634789509446    1.11972837111696
C        20.60805095301591   11.38974076581517   -0.37275957075513
C        18.77742501377918   13.10298082403976   -0.19210806820407
C        18.84479047713870    8.34407960362226    1.95826131128300
C        19.97551315100270   12.65298657654039   -0.97764267627780
C        21.26349188358195    8.18947213155617    2.51428648629786
C        18.93579839366050   13.61504094168662    1.09052575328413
H        19.92542590857286   13.69664922548359    1.51616009285325
C        17.49925516858410   13.01562055417967   -0.72543862600997
H        17.36275657807647   12.62422643696681   -1.72405764173978
C        18.44795638901682    7.83728911545391    0.72624816956130
H        18.82163453436873    6.87865981194653    0.39145364548519
C        16.56651603897379   13.93976446706093    1.28145229609476
H        15.70925244601359   14.26583411139847    1.85203148658991
C        17.83851446197376   14.02920519484177    1.82292367653223
H        17.97595545136631   14.42563099139395    2.81828019237957
C        16.39971090146808   13.43327949318071    0.00438711009252
H        15.41065763956291   13.36429531797984   -0.42519326999677
C        17.45434764964828   10.27363541044974    1.57604867186553
H        17.06768160195519   11.22461243187427    1.90851146235481
C        17.06292880114525    9.75862010723433    0.35096047816307
H        16.36951329062092   10.30809829472449   -0.26718080966562
C        17.56224307692510    8.54015670136796   -0.07365847125161
H        17.26355872531003    8.13188831808368   -1.02819130385665
C        19.86067941613073    7.62084280134551    2.79601769332838
H        19.84875140725602    6.55193961576713    2.56649765969339
H        19.63712570167965    7.74818346961128    3.85595925015388
C        18.34400403495597    9.57402163410616    2.36964889043101
H        18.65138205437567    9.98119553742157    3.32204119361029
H        20.72584163027041   13.45060004587688   -0.97944113696685
H        21.26912692247335    9.25601912542198    2.75374962310347
H        20.91843819274981    8.40753371107633    0.53344301925596
H        21.73007020681144    7.04289130153331    0.89203814078274
H        22.00194619158397    7.69106121216647    3.14918089800456
H        20.89769815999266   11.59325260860335    0.66181888011684
H        21.52674283803683   10.62185884657706   -2.02835651790698
H        22.39961210554893   11.76010489810611   -1.24107177502559
H        19.68687634764608   12.45292644351716   -2.01327706931031
H        19.87371255471492   10.57852222498660   -0.36937932588629
I        23.81875349459574   11.11073052064693    2.07914002363569
N        25.33830327187213    7.77823654251725    1.09964599045099
N        25.46800309311096   10.68860571446654   -1.11949977037131
C        26.52791298354097    7.33504228762673    0.37208693930667
C        28.35775132704191    5.62107034703212    0.19112539439672
C        28.29308993168919   10.38113834570129   -1.95713049201150
C        27.15988374477678    6.07142325010525    0.97676901466134
C        25.87464942940601   10.53555320094640   -2.51392627663055
C        28.19907124776072    5.10918815857197   -1.09154143296250
H        27.20937186122987    5.02794875780493   -1.51706868591117
C        29.63600631022793    5.70812375847359    0.72429271849435
H        29.77268985524377    6.09928594871511    1.72297012478841
C        28.68943830024106   10.88760210887401   -0.72483471230721
H        28.31580381332726   11.84624397462454   -0.39003589047393
C        30.56826316007648    4.78409600352999   -1.28287444477091
H        31.42538202122248    4.45798319909748   -1.85364587669141
C        29.29616335331539    4.69491788365349   -1.82415763771504
H        29.15851218157321    4.29877477818033   -2.81958675335495
C        30.73536499919665    5.29039350021754   -0.00576659636606
H        31.72447873599204    5.35905771728577    0.42370360756443
C        29.68274254166553    8.45108475811727   -1.57455134374681
H        30.06935219197154    7.50009714627402   -1.90702197895550
C        30.07358733083291    8.96571407594487   -0.34912269537099
H        30.76652489020868    8.41592978276176    0.26927652541404
C        29.57446280327064   10.18427689738587    0.07543619667297
H        29.87278191755469   10.59228827806924    1.03020327335942
C        27.27745764670373   11.10452793743594   -2.79505354921984
H        27.28916898572630   12.17337600382527   -2.56526062618328
H        27.50138710599954   10.97750426587868   -3.85494488869251
C        28.79375808935289    9.15114272023651   -2.36850916877479
H        28.48677410662372    8.74426093126861   -3.32115682092414
H        26.40918376316646    5.27416885296681    0.97836892769281
H        25.86932072760552    9.46899284043054   -2.75338375041448
H        26.21893678201738   10.31712588170577   -0.53299312552330
H        25.40783904900543   11.68205499899267   -0.89170022677931
H        25.13628120053269   11.03381299466105   -3.14904356302614
H        26.23832497357438    7.13188427060376   -0.66257967063395
H        25.60934730224906    8.10276243918403    2.02785024110912
H        24.73603464201149    6.96531764190425    1.23990839172888
H        27.44858982126372    6.27116917679135    2.01244360431345
H        27.26262792581625    8.14591470630387    0.36898584285316

