43
CSD_code = HIWKEG | q = 0 | S = 0 | Stoichiometry = C16H17MoN3O6 | MND = 6
C        -1.46641142707054    2.51461921671058   -0.55810007995293
H        -1.27979166736461    1.48384169291934   -0.86246807752921
H        -1.75797366307478    3.09938713923811   -1.43698669078961
H        -2.27745029813974    2.53436269421569    0.17712733169203
Mo        0.18974199897593    2.82874001777916    2.63093416369759
N        -0.02819527615935   -0.00924607397896    1.74575773102668
N        -1.22682122398849   -2.38346391724150    1.38126693222519
H        -0.38026912312941   -1.82965269166630    1.40075956286686
H        -1.17467654549573   -3.38663667789900    1.35060753848240
O        -1.33501905404628    1.70594647917907    2.39842891601206
O        -0.65643075787081    4.21811609790548    2.35659350934449
O        -0.25815618637877    3.02268426755473   -0.01290499300309
H        -0.45423184990303    3.89975772158973    0.35983486924436
N         0.90847721517272    0.97390530177944    1.77330855831080
C        -2.32993472993134   -1.80648491425026    1.91516901737716
C        -1.19953697967919    0.44254972887660    2.12454824264216
O         6.38480782291842    4.23753569295021    1.56588778046876
C         4.11529804978275    3.78273681802103    1.77057147367038
H         3.96075702045610    4.83256895761742    1.96942486857529
C         3.01867010579464    2.92452592534370    1.76691674814255
C         5.60321124709597    1.94741740381306    1.27600290729381
H         6.59045284751602    1.55837393832673    1.08795241442668
C         2.12822777346900    0.62939503585673    1.50588714376898
H         2.32849878367794   -0.41974976623241    1.28290186096293
O         0.53409343453854    2.42320391064325    4.19049340742618
O         1.80883884332615    3.38797670431991    1.98114222942223
C        -3.49940187149021   -2.55736064207940    2.10832284786393
H        -3.48049618971909   -3.61072213539435    1.86703302888290
C        -2.35941329087966   -0.43057669330859    2.24120614620603
C        -3.54310233543230    0.13441260580165    2.73513188833538
H        -3.53017785376215    1.18635156041182    2.98746672166960
C         3.22279859413975    1.53861435317453    1.51034823304638
C         5.40360374477806    3.31128529923443    1.53302939825696
C         4.52821987321468    1.09148944483791    1.26559638792720
H         4.68821381864172    0.04118578112782    1.06959209593277
C        -4.67717121542853   -0.62256361512448    2.90997105413899
H        -5.57939872263433   -0.17423303688215    3.29480357192039
C        -4.64818007460488   -1.97883594589560    2.59401678886435
H        -5.53248576866326   -2.58278111364951    2.73457386336604
C         7.71787323017551    3.83700551738386    1.34050967122766
H         8.05334403680456    3.11760869761669    2.09331866020949
H         8.31291538573440    4.74507854247281    1.42077361215417
H         7.84498227863960    3.40893067690669    0.34164866419910

