57
CSD_code = HIWNUY | q = 0 | S = 0 | Stoichiometry = C24H25BN2RuS4 | MND = 8
C         3.62911795185731    1.35392698789524    5.87301852163925
C         5.63996012273669    0.78144531690690    7.18712178667087
C         6.76727934108201    0.31060241292146    7.83393804293545
H         7.17742206322034   -0.65202065413446    7.57461523625066
C         7.34175984825480    1.10258626487569    8.81116177544261
H         8.22350108207196    0.75900624098808    9.32900601431069
C         6.78451284230973    2.33447739314097    9.12886992739378
H         7.23678114725136    2.94245658605292    9.89763657736096
C         5.65803986354133    2.80489664939038    8.48118099549066
H         5.24053005839119    3.75831255045112    8.75013751346508
C         5.06912008248296    2.02812717708139    7.48776163880112
C         4.38911211181145    5.04105877420000    5.31808391749763
C         4.53936678052948    5.78825794872313    7.45424798982598
C         4.24568552755668    5.97244372917594    8.80343975147281
H         3.49902352236376    5.36164466291787    9.28358816716627
C         4.90856661571962    6.95644914143076    9.51211780105890
H         4.67825392812801    7.09568461818185   10.55734256501681
C         5.85878208770208    7.76793854411931    8.90529710042010
H         6.36710220893779    8.52565884840581    9.48067774773284
C         6.14709637234165    7.61906485566600    7.56083437132406
H         6.86843912622831    8.24943707419195    7.06641588910634
C         5.47911753039999    6.63888785795428    6.85077341647575
C         0.70255633546240    4.80810029749155    3.04466861836672
C         0.33454381044207    3.44064663166096    2.83825036548063
C        -0.45803924919809    3.02337105451629    3.96263012850460
C        -0.52872655457897    4.11169411840228    4.88025743735637
C         0.20593980487743    5.22205666172279    4.31812241274489
C         1.38460721171654    5.67550214068377    2.03365228555663
H         2.18240045240545    5.13229738835521    1.52899349603384
H         1.81658709825434    6.55912206096442    2.49854354620438
H         0.66154237691568    5.99791618901423    1.28210423366709
C         0.51759983297911    2.66604749948490    1.57088926924334
H        -0.34535181759595    2.81084221773409    0.91732496422775
H         0.61438903284151    1.60201390323512    1.77848112236867
H         1.40841564058081    2.99556367307585    1.04032686140965
C        -1.20628484495976    1.72996901319288    4.05523851387432
H        -1.45294540492229    1.49138163214699    5.08768184826045
H        -0.61672079565391    0.91127906735719    3.64599902884541
H        -2.13503494817633    1.80172642807724    3.48558441090005
C        -1.39236111663456    4.18114061466590    6.10306389863202
H        -2.38082047042831    4.55873329299773    5.83276283708602
H        -0.96477836488495    4.85000161662938    6.84780164587724
H        -1.51384538121776    3.19805957544884    6.55384634102205
C         0.19160766597774    6.62410898600859    4.85111386399417
H         1.05459697622692    7.18652678184415    4.49896110971814
H         0.20239615028625    6.62889536651815    5.93994528240503
H        -0.71156938653361    7.13981403787486    4.51701190888521
B         3.12818771435904    3.64202558073306    6.98586970506833
N         3.95226777862340    2.33361278417375    6.73491490607504
N         3.99381923672879    4.86146620950337    6.59113302193647
S         2.33832892074265    1.28799855853430    4.81771884934690
S         3.79620381024520    4.24819908905835    3.97916643545590
S         4.72103704974852   -0.01292645741433    5.93570560175166
S         5.61819330603139    6.27781371859801    5.14690004073958
Ru        1.58670271866816    3.52445780598276    4.62739920145463
H         2.82846569365861    3.68598239451570    8.12855481273735
H         2.07761950212456    3.64991708667899    6.27461524790398

