28
CSD_code = HIWPIM | q = 0 | S = 0 | Stoichiometry = C12H12FeO3 | MND = 8
Fe        5.73111510885207    4.81568187320222   -1.17828614426168
C         7.38629735476682    4.87794449091815   -0.63947490605578
O         8.47241967423813    4.84066622632037   -0.27449713962456
C         5.99429514960245    3.09414387821470   -1.28113687964399
O         6.25181347858521    1.97925057351388   -1.35046075449566
C         5.17877870889719    4.67494920108862    0.70767093309390
C         5.55301753650944    5.61223790411548    1.58942092820682
H         6.29695781600615    6.34460900373885    1.30167831966712
C         5.04287530414108    5.79788103460080    2.95495739138812
C         5.67786475635334    6.97021682203313    3.67132399813474
H         5.48700699457174    7.88825919731268    3.11932390423413
H         6.75437614237908    6.82352796379677    3.72767958582227
H         5.26908174960325    7.05762180794890    4.67450447880572
C         4.19991255622510    3.60263849992779    1.03079584637281
H         3.49426888446287    3.45340798012980    0.21494998773538
H         3.65965059987397    3.84308381447772    1.94619888769495
H         4.73432292468808    2.66530903552150    1.18459751066678
O         4.19382126421978    5.11490166536494    3.48967074079779
C         3.92685348687636    6.24487840522428   -1.45083330589583
H         3.19388535413481    6.51823260204074   -0.71013368323576
C         3.82712958377117    5.17241186853651   -2.36123438185609
H         2.97400143818408    4.52452964397109   -2.48024258041574
C         4.93697377629582    5.24242455947004   -3.24922934336591
H         5.07192948589708    4.64071325377821   -4.13292689646230
C         5.73737789368809    6.33077903002312   -2.85614934453121
H         6.59899085676459    6.70800538265613   -3.38196769674180
C         5.13005171966222    6.93321465002944   -1.72091126539818
H         5.43833040075061    7.85977963204383   -1.26548819063561

