58
CSD_code = HIWQAH | q = 0 | S = 0 | Stoichiometry = C24H26BN2S4Ta | MND = 10
B         2.91351912715137   -0.22261926906588    3.07504317449850
C         0.95546373062228    4.68153255965509    2.31252389393974
C        -0.17836277213220    3.93052027907618    1.87246409081982
C         0.21436193365471    3.16836688727791    0.74299004531633
C         1.57317109849489    3.48114527635726    0.45380471320547
C         2.03439197250049    4.39630130398621    1.43509070119418
C         3.37520786497661    5.06162034012739    1.42819875319074
H         3.36467959286169    5.93008193355977    0.76732728519502
H         4.13956865302871    4.37289422452925    1.07119230189625
H         3.65191959999925    5.39628048727790    2.42663284448719
C         0.93062209634051    5.75052639957643    3.35911115759153
H         0.24759074008543    5.48679195118527    4.16484017470113
H         0.59686749448415    6.69483961339009    2.92551012478139
H         1.92070485278675    5.90151665175073    3.78652039137582
C        -1.56649382636334    4.07151741711419    2.40551101662386
H        -2.16346166253187    3.19122405712497    2.17874864036984
H        -2.05184829343997    4.93991437819201    1.95719623061367
H        -1.55426446959270    4.21021442719684    3.48463960644776
C        -0.67560105286289    2.32193433957244   -0.10937462603146
H        -0.12737377551677    1.46858903565938   -0.50339053471639
H        -1.05562200102180    2.90145109516071   -0.95210010695544
H        -1.52401240719572    1.95229400148364    0.46133406165011
C         2.33345500703806    3.06125547150410   -0.75719938534985
H         3.36885834547982    2.84168194390349   -0.50533440478827
H         2.32254373948042    3.86180770128833   -1.49859617897152
H         1.89901309258221    2.16997400897647   -1.20061770077234
C         4.35158447791913    1.23322439876905    4.58469815445457
C         5.87913442760131   -0.48873087218614    5.46955244193399
C         6.81020742317933   -1.32625208132683    6.05766171417528
H         7.50756644689709   -0.93757446102420    6.78198241109779
C         6.81731666975829   -2.65734864747488    5.68840298864835
H         7.53270883068257   -3.33194011035415    6.13192826152125
C         5.91228414441827   -3.12840961038467    4.74398510438248
H         5.93507142563602   -4.16881748145873    4.45860787007884
C         4.98327714711561   -2.29188848356131    4.15778211613053
H         4.29758561817254   -2.66996954933018    3.41963875189177
C         4.95127822437218   -0.94906664900927    4.52283198748949
C         0.47841558695961    0.42662467094526    2.91085287764029
H        -0.44999529700765    0.34379868484945    3.47863342276644
H         0.50512237113591   -0.29473283936225    2.09200044192125
C         1.42547046083820    0.26582595746394    5.13305104763668
C         1.81891548186581   -0.85617246075887    5.84843922028495
H         2.27015722829873   -1.68485690342170    5.32333375391467
C         1.63075926088643   -0.91393847196858    7.21922040737697
H         1.94695725972532   -1.79041512459918    7.76386771982435
C         1.03792048865555    0.14816881125547    7.88288788687550
H         0.89291107849116    0.10515190688130    8.95168741574043
C         0.63507657302739    1.26847980471564    7.18254981489770
H         0.17935819889964    2.10595950356422    7.68760268966378
C         0.83136050632035    1.34311880418141    5.80780101509083
N         4.09739678180006    0.03342949188032    4.05829041827486
N         1.63586398898658    0.38466477810124    3.73409342544329
S         3.61991040935374    2.71117894088490    4.28015192859739
S         5.66084656763871    1.21813997109883    5.74207664066919
S         3.10539026225998    0.91609022121134    1.56350358028905
S         0.37332578493660    2.77099996824285    4.91670364071656
Ta        1.53742703798790    2.33244842155541    2.74274899622411
H         2.81149645222834   -1.36274710525989    2.78796558399569

