116
CSD_code = HIWVOA | q = 1 | S = 0 | Stoichiometry = C54H56BClP3Ru(1+) | MND = 8
Ru        2.86537770523448   10.12417546352649   12.35138292498060
Cl        4.49978314508584    9.62510182745657   13.98899038514016
P        -0.91242379356789   12.05207140383273   12.91221674033417
P         3.45433907320334    8.42439640610272   10.91433787325127
P         4.32848909254920   11.71526296494347   11.56914397252334
C         0.78991793263282    9.53770003352178   11.93106179118372
H         0.50016065787351    8.71122941818760   11.28308694750474
C         1.04290875816533   10.83406584694214   11.37852736872450
C         0.85024331125324   11.97275791515824   12.36411055201426
H         1.11482545781235   12.94121330634852   11.92289224563889
C        -2.15362563409921   12.48522711487645   11.62198688349759
H        -2.55543980599058   13.47362396932771   11.88046175022930
C        -1.51278851152218   12.56302036579525   10.23360831438968
H        -1.07529859643105   11.59463920238804    9.97748069993996
H        -0.71269154669725   13.30774839749457   10.22590324375932
C        -2.57487954746044   12.92895209815493    9.19910934911022
H        -2.97710556677775   13.91948662298803    9.42260380200594
H        -2.11941226824823   12.97148765381322    8.20911061398521
C        -3.70633998338610   11.90528214806051    9.20848234785671
H        -4.46455979340055   12.18628372590160    8.47763183877271
H        -3.31401962647767   10.92667795370510    8.92382146933366
C        -4.33637196057065   11.81698698022957   10.59533187269347
H        -5.12743539264575   11.06646517470503   10.59937437511025
H        -4.78700905955396   12.77754544430602   10.85390480609069
C        -3.28337216884525   11.45119820263495   11.63855314657295
H        -2.86917776057377   10.46584064150807   11.40490348931688
H        -3.74046142517662   11.40102043587235   12.63063001328163
C        -1.08250442204641   13.04622966137545   14.44321419647149
H        -0.40207097775318   12.57941813543189   15.16998871000938
C        -0.63757245437269   14.48962728975367   14.19672676994151
H        -1.27462250788339   14.94844941287480   13.43529990313563
H         0.39350011977186   14.51008802327470   13.83300860088936
C        -0.74326134728753   15.29062487984727   15.49306293501887
H        -0.05151161893561   14.87738743641697   16.23021405985647
H        -0.45410899695377   16.32555550803413   15.30697610848645
C        -2.16535006833241   15.23707932766256   16.04372007185959
H        -2.84964876164095   15.70827459117946   15.33485875265117
H        -2.21822317899288   15.79614771752294   16.97772970557806
C        -2.59495777960866   13.79264158017071   16.28423726907979
H        -3.61717123923528   13.76540186043914   16.66279356032608
H        -1.94723493710321   13.33952341786784   17.03740222771006
C        -2.50996666156817   12.98773604677461   14.98841050674730
H        -2.79989736975747   11.94912480881932   15.17188329276293
H        -3.20545965141178   13.41298006212768   14.26031883378009
C         1.71173109704068   11.61673276471891   13.54902506728289
H         2.11261210086297   12.41331056550258   14.16900956180291
C         1.51175161975389   10.34502126022457   14.10123535069222
H         1.83597303855869   10.12553398133269   15.11621676521202
C         0.93299830666432    9.31311853885708   13.31626827680605
H         0.69693952488557    8.34968075896114   13.75457625152408
C         1.83681336036999    9.75225850503359    9.03557180296775
C         2.60541245441123    8.61261404020593    9.31327110995802
C         2.74829893486135    7.59739581803728    8.36759227411448
H         3.38561802360872    6.75207080504645    8.59093570332778
C         2.09899871213434    7.67703445351344    7.15170329685699
H         2.21030161550055    6.88735411179246    6.42445623034423
C         1.30858199374902    8.78121085296774    6.87265562939638
H         0.79253830032388    8.85083124791426    5.92682946633146
C         1.19551629169797    9.80301767465379    7.79633927984718
H         0.58994255844274   10.66430353043213    7.55315381670230
C         5.12223842803936    7.94169763382313   10.37328174931696
C         5.88753736665792    7.01785820888884   11.07605887379170
H         5.50065337389949    6.56480754219157   11.97626061675069
C         7.14442173547787    6.67063493466937   10.61291220504685
H         7.73272279208428    5.94747224054233   11.15756572842119
C         7.64327401413860    7.23850821789321    9.45293269538357
H         8.61926881610462    6.95563144560433    9.08900185658385
C         6.88891475068729    8.17141345442795    8.75871935282197
H         7.27646042142521    8.61845952455149    7.85572690969847
C         5.63769601513286    8.53051884540879    9.21923425701563
H         5.05029689055188    9.26370709192764    8.68292171236015
C         2.77224028481731    6.89615833902421   11.63962049623606
C         3.17303449851406    6.59925897891766   12.94310469440399
H         3.85064534001836    7.26915859379311   13.45878709270226
C         2.68723273839453    5.47329040721776   13.58156199382011
H         3.00861620316221    5.24640964638529   14.58716929695538
C         1.78354003852463    4.64413529389494   12.93565783354362
H         1.40271343913799    3.76529440071797   13.43359530361728
C         1.35937389078992    4.95234612031477   11.65410071480551
H         0.64342983138728    4.31698318187721   11.15382923840929
C         1.84698111399864    6.07413883312944   11.00499999342548
H         1.49977831880791    6.30566311009709   10.00810349791220
C         2.38907259097217   12.34550764168331    9.64915049557009
C         1.85124904057792   13.18804268880446    8.67619159159359
H         0.95442590430775   12.88649106529136    8.15433859650472
C         2.43155696571024   14.40471459037518    8.36751202184744
H         1.99003246422043   15.03474165479602    7.60983905936372
C         3.57665603932777   14.81755586355998    9.03094151039515
H         4.03202465392441   15.76692218936840    8.79362210960176
C         4.13498748459340   14.00355432768718    9.99751153304955
H         5.02373052567876   14.31849611476548   10.52771018072604
C         3.55137890432518   12.77488999752122   10.30472591456361
C         4.77134562182281   12.91731047214974   12.86966633676573
C         5.87573164818451   12.70957807229862   13.68930635783954
H         6.52543505884197   11.86628699980571   13.51461447308175
C         6.14129014392359   13.58079107745953   14.73133082187280
H         7.00026903514637   13.41039360550659   15.36209364717186
C         5.31118323646505   14.66307768359435   14.96867319726946
H         5.52017660371605   15.34025810795056   15.78274094297910
C         4.20993755485174   14.87719830323262   14.15515005665212
H         3.56196771926768   15.72406564717156   14.33174769460002
C         3.93832141961366   14.00850358010757   13.11522862305316
H         3.08351749021793   14.18869004152809   12.47547932527954
C         5.95046985627320   11.26565210727572   10.87044538862522
C         6.44250293899806   11.82358979023604    9.69437389885481
H         5.83330937827009   12.49564483417540    9.10851275373219
C         7.72037359560203   11.51315975788174    9.26377168267445
H         8.09672973445919   11.95512209201745    8.35309918229080
C         8.51647624588314   10.64942822693449    9.99650566950424
H         9.51900675403792   10.42602184254105    9.66470842918168
C         8.01720046811344   10.06171962265325   11.14709060376695
H         8.62434980798648    9.36974606782520   11.71058265951318
C         6.73644560870196   10.35420561246878   11.57663006324047
H         6.33400902155466    9.86579881714385   12.45359984441568
B         1.73153815904699   10.96564383950256   10.03576825968863
H        -1.23747074845096   10.76511223283676   13.30195675697666

