93
CSD_code = HIWVIU | q = 1 | S = 0 | Stoichiometry = C45H42BClP3Ru(1+) | MND = 8
Ru        4.26330271569071   10.09381217794595   13.27076282529777
P         0.46419686342474   12.11222010552637   14.09005451339794
C         0.35673927621491   13.63408477795375   15.07133857499849
H        -0.67299469577074   13.80934383918794   15.37939575995691
H         0.70608887719220   14.47856009385198   14.47874321673245
H         0.98507222780180   13.53585866274305   15.95647581849691
Cl        6.13037538229998    9.71544667807744   14.67608082148709
P         5.53449115933840   11.68913493329883   12.21402166228771
P         4.70203383196230    8.34492624895435   11.83930724157845
C         2.54791152244741    9.25261773632430   14.53379573658105
H         2.42885008503511    8.30047952486815   15.03862299953280
C         3.16040365856056   10.35187532618556   15.19149572935296
H         3.63534357939248   10.19838890659254   16.15782426533308
C         3.20641741435866   11.60493250443124   14.57525499985232
H         3.63533306806040   12.44827003351884   15.10822747349143
C         2.20238521765613   11.87478723254359   13.48806559756541
H         2.42383748833862   12.81148353958006   12.95611182363965
C         2.28881763194923   10.68997129321547   12.54503576356361
C         2.17803019594561    9.41248563968631   13.18363508486201
H         1.83550850766027    8.54706850666489   12.61703949398708
B         2.77097654907149   10.78595214730518   11.11362025770225
C         3.30394923026777   12.17546191467697   10.59024945084889
C         4.53835445729898   12.66633709653165   11.03871477482099
C         7.04746860907817   11.25436730302618   11.29693541902040
C         7.96272773849902   10.40225391996291   11.91625943015095
H         7.71313093268034    9.94554035277004   12.86435885893374
C         9.17504718335374   10.12739147908532   11.31211670768513
H         9.88470960235636    9.48278761217690   11.80793730093909
C         9.47456663771345   10.67159427546085   10.07409200132829
H        10.42381780337543   10.46163485651016    9.60516505051416
C         8.54659301200906   11.47350515743099    9.43179398508846
H         8.76578772675692   11.88006086281006    8.45560922202016
C         7.33716890341365   11.76764096483424   10.03643398744320
H         6.62274973366548   12.39184169108157    9.52057877501279
C         6.12946224651036   12.96399175828300   13.37800012576289
C         5.30955484019037   14.04373001715164   13.70394826553494
H         4.35736423056221   14.16901600439619   13.20401297613352
C         5.71464018982389   14.97222384734248   14.64408413747925
H         5.07547388023953   15.81073774003997   14.88153868352686
C         6.93764206235589   14.82946403152595   15.27956469284347
H         7.25119369733698   15.55370577549739   16.01582794474394
C         7.75427518697753   13.75685772497843   14.96444115792720
H         8.70756653923418   13.64056166025718   15.45687351988578
C         7.35578987196994   12.82705984564479   14.02018597205437
H         7.99799251281801   11.99319212676330   13.78378326339878
C         5.02060926579800   13.89884409801509   10.60005848702868
H         5.97042196539407   14.26118291724515   10.96965498692228
C         4.28627776279766   14.65752146383857    9.70900475637455
H         4.66466515146618   15.60904597714686    9.36786093448501
C         3.06241489977022   14.18830534880527    9.25769564435872
H         2.48083917212208   14.77710234654540    8.56408703216069
C         2.58341736746855   12.96723955419124    9.69620131307484
H         1.62288239395368   12.62078365966081    9.34105193513308
C         2.79250946462787    9.53757065659023   10.15192316701428
C         3.63129083452149    8.43444712326574   10.36767642935843
C         6.29234562988172    7.88495247822745   11.08590960832611
C         6.61666694993120    8.42209141242343    9.84072800725713
H         5.93439238760420    9.10884183061398    9.35812870097670
C         7.80024689485460    8.07072888893844    9.22234589234980
H         8.03837633007802    8.47702014749001    8.25096805797638
C         8.67785506598707    7.19793712066747    9.84622081790025
H         9.60039191456086    6.92068088957200    9.35931493751440
C         8.37065876694498    6.68301537489501   11.09418054541873
H         9.05525953357317    6.00696677755484   11.58402354128009
C         7.18228668690336    7.02240450539849   11.71642156418196
H         6.94423337503229    6.61057155234950   12.68533165739164
C         4.18821839769866    6.82903384199545   12.71481888311156
C         3.22032819577477    5.94623922454876   12.24747406169922
H         2.73046521527678    6.11999346271438   11.29999932684969
C         2.87331960565932    4.83785610326918   13.00155568917533
H         2.12307064312327    4.15531978854369   12.63036812100605
C         3.48116570445557    4.60276655078054   14.22327530350129
H         3.20905966706943    3.73388351662371   14.80322422821130
C         4.42925286093681    5.49211926261340   14.70434398739388
H         4.89492526260626    5.32222392917966   15.66364575723323
C         4.77562859825689    6.60516496088475   13.96083446367037
H         5.48869336837683    7.32152775933185   14.35104501440404
C         3.68353514783587    7.38486759676168    9.45048854665626
H         4.37333108832063    6.56854197170668    9.61904627969282
C         2.87948903308367    7.39431459132454    8.32819805277455
H         2.92278697654378    6.57849850209518    7.62287492057850
C         2.02405266829340    8.46359706424805    8.11254288687329
H         1.38956865771021    8.48066679807622    7.23914354409666
C         1.99634962985930    9.51845157301540    9.00497342788403
H         1.33688406472360   10.35187195685012    8.80967201872515
C        -0.21691593886843   10.78133663959473   15.11696453957470
H        -1.22216014745835   11.06460400929423   15.42970585314085
H         0.40688012235120   10.63590283772525   15.99827655906400
H        -0.26226498994121    9.85338760855561   14.54907905830123
C        -0.59414376053759   12.27235119605127   12.62857748620444
H        -1.63208717755747   12.41054501582788   12.92695602077189
H        -0.50233429776012   11.36801718852133   12.02672679574624
H        -0.26728779552538   13.12580499987953   12.03558579396239

