56
CSD_code = HIWYET | q = 0 | S = 0 | Stoichiometry = C22H25IrN2O6 | MND = 7
C         1.28098354838868    3.69224745317194   12.08742356503947
C         2.57792200216476    4.12398072025959   11.80684006765278
C         2.79056861250521    5.55188209720760   12.34827646380041
C         1.47132134370569    5.79584557390563   13.15894162156490
C         0.49179738490359    4.87538304339908   12.40768748543658
C         0.79724512146613    2.27686076597390   12.14603449828634
H         1.38567650331464    1.62158475403303   11.51068652276989
H        -0.24553522993886    2.19960591633592   11.85347503370782
H         0.88871016727030    1.92703703235266   13.17562578077391
C         3.74509230652100    3.25121173721152   11.46933935259755
H         4.29554069884639    2.98652679929505   12.37376738490819
H         4.42608500073678    3.76939011117074   10.79648294136495
H         3.41809216487629    2.33338191254271   10.98636566642234
C         4.06822563918476    5.74219227827698   13.15435766339822
H         4.93555015857933    5.57971772343295   12.51846735600236
H         4.10548297715497    5.05744391288731   13.99681677939239
H         4.10026081353044    6.76043701928668   13.53459666584672
C         1.06116570361964    7.25959320015486   13.24369632604518
H         0.15607313510518    7.33433236651840   13.83873615640443
H         0.88645066080994    7.67391282317259   12.25662281864189
H         1.84616380198340    7.82467964174887   13.73781344331342
C        -0.90582077107037    4.79037692692228   12.95621588283813
H        -1.46985237652063    3.99050003595168   12.48607627100777
H        -1.43896142910146    5.72417034680727   12.79387310053540
H        -0.86797068974877    4.61203272819472   14.03213526057950
C         0.50888250356955    7.68726769436900    9.40178647484827
H         1.58697197297157    7.64240912073533    9.34072684229632
C        -0.14443092477513    8.87705714247481    9.15090686999612
H         0.42420738827415    9.75268047126404    8.88209531652597
C        -1.52795881580153    8.92137900375143    9.25919618658210
H        -2.07098083702943    9.83744285732742    9.08798342363756
C        -2.18730406306206    7.75257656576429    9.58402271222991
H        -3.26147194628410    7.70818094946272    9.67800406262869
C        -1.46543070778230    6.57938065237568    9.79596813876915
C        -2.27889579997055    5.33877724494197   10.02353551501964
C        -1.67670272325430    4.06514328310628    9.60593171905538
C        -2.56523046969169    3.08078714441793    9.15243883503858
H        -3.62366580837280    3.29050262953216    9.20094710140851
C        -2.09360881825052    1.89558456714331    8.63605154840376
H        -2.78202193920881    1.14576513637266    8.27702700685209
C        -0.72396130433606    1.68023135250129    8.56346200550437
H        -0.34297472345301    0.76539673271003    8.13381410792603
C         0.15514748029227    2.63171942294711    9.04987488561242
H         1.21772238731141    2.44249698761250    8.99209555524073
C        -0.29931117195079    3.82784300893514    9.59338640614254
N        -0.12524971339843    6.55576318092733    9.72718664350728
N         3.24255193866494    5.20435989602893    8.16420165881599
O         2.75240559462816    6.47838992155820   11.26214512690792
O         1.60536497308784    5.35013413099030   14.49663119733507
H         1.77808237170087    4.40157979437098   14.49371991954828
O        -3.42788713640593    5.43835119546279   10.41010484640407
O         1.99210079268327    5.14989323472591    8.31434987687103
O         3.94372977446978    5.31733746718110    9.17359061316830
O         3.71098791289301    5.15560498431770    7.05742946303558
Ir        1.05302302840805    5.08440183917446   10.38686998189548
H         3.46944153578872    6.22563546730178   10.63846185045948

