82
CSD_code = HIWZUI | q = 1 | S = 0 | Stoichiometry = C35H44IrNP(1+) | MND = 6
C        14.01955087939762   15.14107664492697   18.21362752766411
C        14.75272796276015   16.19224963121160   17.67387752741420
H        14.37359138927970   17.20169387938225   17.73309115572886
C        15.97248258186623   15.95694298380925   17.06500600580090
H        16.53324271753905   16.78046054757053   16.65093491996279
C        16.47284925550837   14.66847167044428   16.99757191874104
H        17.42617223295002   14.47873526555294   16.52991780477607
C        15.74650805720697   13.61912160351173   17.53369342479513
H        16.14663526133259   12.61617936123659   17.48154397652578
C        14.51502174185590   13.83695153983818   18.13953668883335
C        13.75930208274345   12.67671243399445   18.73099513021170
H        13.53966852951270   12.89714069645211   19.78007421098307
H        14.42784290326252   11.81069951770216   18.69824818314647
C        12.09623028008759   10.93607961408260   18.40854612768024
H        11.04259280458012   10.81995689158855   18.14136337788324
C        12.87782348561744   10.04735174628007   17.44022991748371
H        13.92671733944215    9.96411570104367   17.72634106540080
H        12.46269623777928    9.04432421812628   17.38396490609259
C        12.71348749817277   10.81770904300954   16.13515004822728
H        11.76025407863139   10.55970485768545   15.67081203931481
H        13.50385176506271   10.60500893911041   15.41910398057817
C        12.72195091289442   12.29597280257054   16.56359459034831
H        13.71846337876243   12.70426924477465   16.38481193232901
C        12.24284105291562   10.59235077194036   19.88917685386138
H        11.82524433140994   11.40693741292966   20.48722074465153
H        13.29299823777137   10.48184971844481   20.16052876067225
C        11.51652110023895    9.29523241661186   20.23345826290158
H        11.59040558054018    9.10054049870723   21.29991937772891
H        11.95718789533622    8.45385064594260   19.70621395550797
H        10.46228969201084    9.34884870588293   19.96917507386178
C        11.74729074483113   13.16927038389277   15.76992523255291
H        10.83573624126445   12.61702607426135   15.54369931998022
H        11.47631143375466   14.04260925577917   16.37961650390420
C        12.36805474639674   13.65350777441455   14.46531187738924
H        11.65789583812280   14.26096639953477   13.91082175035388
H        12.65336504875772   12.81031721475512   13.84132788058290
H        13.25509058357779   14.25359795193421   14.65995321767983
C        12.08552779230138   17.14070016965905   18.82982682687642
C        11.86591255347504   17.56083627388710   17.51717775366965
H        11.96576532858090   16.84784465429392   16.70831472305256
C        11.53839978383751   18.87644327564412   17.25163395878993
H        11.38018532452636   19.19834049119852   16.23353741967341
C        11.41008953732678   19.78090301134115   18.29525848842263
H        11.15370350705980   20.80833172073854   18.08897778169221
C        11.60620038505250   19.36466119494890   19.60120464511361
H        11.50004645001557   20.06660430930638   20.41402181200916
C        11.93769428990416   18.04779302114650   19.87255069102979
H        12.08850794673793   17.72943557924860   20.89427812699504
C        13.05502099118300   15.30837306725287   20.81337567463713
C        12.41394828577412   14.49013042758639   21.73692522152860
H        11.55002807232404   13.91784887280465   21.42272610549982
C        12.87728883776120   14.41298985407439   23.03811101578230
H        12.37661875398120   13.77807289246654   23.75338793992816
C        13.98463511548205   15.15206990615593   23.42111356455711
H        14.34580211678703   15.09515852756679   24.43618418879770
C        14.63158499363415   15.96363027524034   22.50141012815516
H        15.49595928515347   16.53631408317515   22.80083972076632
C        14.17429199741890   16.04089780227391   21.19893888613663
H        14.68008496507174   16.66985959834327   20.47955467813897
C         9.12673075419587   12.45646368961022   19.22008325130487
H         9.60417022595145   11.56250219965925   19.60806661377971
C         9.11345843398105   12.64081455391763   17.84911668746350
H         9.52616843091684   11.85299530694531   17.22386231581961
C         8.13251236561228   13.51834774384225   17.11174127010709
H         7.16181034435077   13.01500141938569   17.07094117472850
H         8.47901004241542   13.62701217782599   16.08251107247717
C         7.97703237762964   14.91494071675173   17.73854254337270
H         7.14959940041268   14.92753126560472   18.44763946030189
H         7.73540441911020   15.62690139134634   16.94926711310734
C         9.23644165509538   15.36985589121748   18.44196501232797
H         9.68916692234146   16.25771227268784   18.00357607863619
C         9.47547907766655   15.15584701748179   19.81295192112345
H        10.04708217336222   15.92428552949444   20.33598454588042
C         8.54229025996909   14.40759926342235   20.73044243998584
H         7.67030616242650   15.03435569638015   20.93856786593949
H         9.05132418973214   14.24875035911988   21.68248352080532
C         8.09923311158813   13.05269235873409   20.15439661097442
H         7.92837207371487   12.35829891771252   20.97781569268543
H         7.15512968182446   13.15661356185703   19.62024163443962
Ir       10.73796256495469   13.86132992001714   18.65887791205221
N        12.47775475797591   12.33686138269110   18.04546071898911
P        12.44236835821193   15.37601429699476   19.09682992091361

