73
CSD_code = HIXCIC | q = 0 | S = 0 | Stoichiometry = C32H30N4O4P2W | MND = 6
W         8.02680095450514   -0.14446974740893   15.65518561568780
P        10.25631664457433   -1.05785378263398   15.34178825782803
P         8.53303040451206    0.04101673964142   13.27828962250950
N        10.29325070239131   -1.99420823518371   12.75057966946019
C         7.19649832205449   -1.92294668205278   15.35060290691550
N        10.76945997849415    1.30174010858837   14.13434453091002
O         9.23624227409465    2.61431328078094   16.50583362639111
C        10.12525137984037    0.92650433339250   12.90332799732409
H        10.77558042496567    0.25966033161034   12.31713702915821
H         9.89894356553921    1.80967551076265   12.30269896038318
C         7.80533171889081   -0.38845787523726   17.59784415519965
C         8.84272476356726    1.62238616049120   16.09687362090140
C         6.24336039271943    0.69166347200285   15.76009068532171
O         6.70828205852493   -2.95584057007580   15.24236310448678
O         7.65972359783990   -0.50575539029866   18.73047819152159
O         5.20987171471514    1.18171945464906   15.86036898245693
C        11.47200406055886    0.22808226840780   14.77984771100826
H        11.93476162901806    0.59672908367853   15.70061179414381
H        12.24717092537290   -0.23404886185254   14.14465420610376
C        11.20477017710399    2.62393602734815   14.28023720230130
C        12.83106510320535    4.27860256023877   14.93300435087478
H        13.81734576988681    4.50618437844025   15.31252481317238
C        10.70377225349629    4.97937196271904   14.12996546595071
H        10.00313932143465    5.76583944841629   13.88800514493860
C        11.96382235108440    5.31207587236105   14.61650621771510
C        10.32595338028881    3.66442360887663   13.96816661647212
H         9.32709446791423    3.43516174126581   13.62282213850525
C        12.46671813556958    2.95413872848462   14.76588225720945
H        13.18215112670797    2.18296633807899   15.00832687293050
C         7.45393585174190    0.71241059290537   11.97603884791574
N         8.04344959083139    0.82855038910976   10.78981716662337
C         6.01054536190742    1.71135918251734    9.91802015652749
H         5.47401235607323    2.10729295065973    9.07007116746726
C         6.13551101398089    1.07415209848760   12.21320859855593
H         5.72019755325668    0.95350235525665   13.20315233041913
C         7.33575676430377    1.31800264278154    9.78919024791040
H         7.85484390090858    1.39914775603718    8.84241799481682
C         5.39916977888905    1.58382090066704   11.15620741470287
H         4.36910380657298    1.87812249189502   11.29458518741045
C        11.19678500004981   -1.82842054515565   16.69505333674298
N        12.51636802886792   -1.80893639564660   16.53900835947413
C        10.56584114829383   -2.39755979243305   17.79285449177682
H         9.48683996645223   -2.38347973518487   17.85456138707081
C        11.07663988406166   -2.46850068706461   11.69263208499981
C        11.90238169282856   -3.58426711392131   11.81877628986446
H        11.91514304903840   -4.15837416519069   12.73263704059098
C        11.87344896322761   -2.21270927590413    9.42830434494600
H        11.85596874974759   -1.66768936961588    8.49524149022018
C        12.70337744846164   -3.99305618264567   10.76771902056974
H        13.33075035378623   -4.86367482104299   10.89672525224434
C        13.26216081072082   -2.34579349818292   17.48713905835825
H        14.33139421515022   -2.30314675696303   17.32195527983984
C        11.07811424445003   -1.78729386646568   10.47125769311777
H        10.45763328220086   -0.91336811293848   10.33474678666034
C        10.56427058885195   -2.41422211857472   14.09471617174314
H        11.62550254764498   -2.66762242932022   14.19914467836806
H         9.94961317711215   -3.28059051311639   14.40472876418232
C         8.93139335715704   -1.61144668058576   12.49643035190881
H         8.23005848065823   -2.35215844004607   12.91659022835843
H         8.75675659271068   -1.53567642295153   11.42049782769732
C        12.70536977293205   -3.31981127173494    9.55610153927613
C        12.73390857319577   -2.93177422278663   18.62910921859429
H        13.38585878879975   -3.35266149575444   19.37852694578034
C        13.56651359306207   -3.76121713839119    8.41230040606585
H        14.16611549080402   -4.62506716446215    8.68765656483777
H        14.23489148739237   -2.95711428563732    8.10625593711764
H        12.95102511336084   -4.02593048681634    7.55303309910818
C        11.35570384089564   -2.96157139514678   18.78102467299443
H        10.90678960302755   -3.41150434965155   19.65447144152379
C        12.35372354240581    6.74783337841984   14.79528667310509
H        12.26116648295978    7.28858117827452   13.85398742460814
H        13.37950176869112    6.83186999384243   15.14527256824623
H        11.69942678367896    7.23008255702389   15.52088270986439

