34
CSD_code = HIXCAS | q = 1 | S = 0 | Stoichiometry = C14H15N2O2Pt(1+) | MND = 4
C         1.30896200418652    5.24455006423723   11.41328334636662
C         0.67574395460872    4.00620455572544   10.88599391176383
H         0.69621374573523    3.95110105003614    9.80050097439020
H        -0.33599351748173    3.88503840853231   11.27349656165790
H         1.26538399030251    3.16872932791130   11.26909815403811
C         3.70190571148754    6.09246984450335   12.09923043558237
C         5.01884233530918    5.37260001397051   12.05696387568002
H         5.44063299896795    5.32330857804471   11.05500361065570
H         4.82497482013210    4.35256629221341   12.39332256824969
H         5.72502718627860    5.81486379182309   12.75882859816717
C         0.27491843256411    6.48624741440787    8.30805695343131
H        -0.34240048596733    6.08733582158681    9.10076204886465
C        -0.20315530684779    6.55653978329918    7.00983726115974
H        -1.19536635225802    6.20640405722631    6.77775534071759
C         0.62496187537073    7.07652450912503    6.02720572444219
H         0.30029720808769    7.12553862262215    4.99976678888009
C         1.87757048017441    7.54382634582835    6.38786419344814
H         2.53798934463909    7.94646651704004    5.63818180593503
C         2.27513297872808    7.46741785224799    7.72083269882810
C         3.55212922727447    8.01067283511818    8.21266962169517
C         4.30362953222369    8.92465968139215    7.47793293760134
H         3.97784640895987    9.24056498918677    6.50113493350109
C         5.46300006072136    9.44980461075353    8.02230968254612
H         6.05565260201977   10.15847679494106    7.46571136797025
C         5.83383526339780    9.05738065070254    9.29858795849554
H         6.71991979591016    9.44945247082792    9.76975503856366
C         5.03678189789780    8.14623213709242    9.97086123856040
H         5.30043856308369    7.83116393966815   10.97059784276905
N         1.48337646562705    6.91430601416864    8.65396455481321
N         3.93000070194240    7.62487536777833    9.44589091876742
O         0.88509107693222    5.57463138206824   12.58660646056214
H         1.45413008198824    6.26296318308265   13.03222868051704
O         3.24810970632294    6.56942186303261   13.12009451404073
Pt        2.59921721165105    6.35816122980012   10.45996939736812

