111
CSD_code = HIXDIC | q = 0 | S = 0 | Stoichiometry = C42H63AuClO3P | MND = 2
Au        1.62401263386706    3.90866985047395    4.34791678656765
Cl       -0.62351831752772    4.08718546108854    4.30523415374862
O         4.70322466175210    4.39659606320503    3.18633483449632
C         4.36813256140465    5.60462776843652    2.57825409618226
O         4.36214745994214    2.23511492480974    4.31820402074249
C         4.90545855277589    5.93355922903784    1.32976855089903
O         4.67756873382778    4.41215217545709    5.60543473474928
C         4.50102910613273    7.14539666145995    0.77636209273473
H         4.89312489679383    7.41281505872392   -0.18649324888273
P         3.86683574893097    3.75071869253726    4.37570558777337
C         3.61924898133911    8.02299833089674    1.39328287940541
C         3.13651042472007    7.67153425306510    2.64682097711939
H         2.46148635754800    8.31516166317022    3.18701046972493
C         3.51187120024847    6.47768084155672    3.22573963782292
H         3.13422680606627    6.21320920563425    4.20390823689367
C         5.90979652849034    5.03485785388037    0.61735514100405
C         7.16426913206447    4.91505563437685    1.49298671287832
H         7.60532059553361    5.89744645047282    1.65153346672788
H         7.89834407046636    4.27762403883580    1.00547990608428
H         6.92789244036633    4.47993091425532    2.45736956600719
C         6.34383302739403    5.59210088902424   -0.74327154400442
H         5.49875910599595    5.68194554473923   -1.42163952756564
H         7.06055424072148    4.90741678413618   -1.19216180955204
H         6.83041576083474    6.55907048795185   -0.64096316092679
C         5.29675885666664    3.64988392324548    0.37290900292403
H         5.10332408660624    3.13031521411374    1.30424520058187
H         5.98222812769896    3.03860782017978   -0.21061932912222
H         4.36247923083138    3.74555337406637   -0.17737075124212
C         3.17707668414006    9.33190274203629    0.75833102890000
C         3.79508139683506    9.56364141630777   -0.62319824123694
H         3.51301472688701    8.77464063889771   -1.31619521209447
H         4.87961807832820    9.62059537834174   -0.56492280637325
H         3.43226458558309   10.50698736457881   -1.02573122479722
C         1.65009937489576    9.31257906378790    0.60261881793534
H         1.34683342093223    8.47840781222800   -0.02613512465222
H         1.30965821143214   10.23610030475085    0.13960484974797
H         1.15381276417218    9.21011424295102    1.56304669583671
C         3.59366316433204   10.49412868315268    1.67067532123683
H         3.30031600882182   11.44198362669283    1.22502627525620
H         4.67294886221404   10.49648981694705    1.80859308904434
H         3.12502396634747   10.41841688989065    2.64749098354056
C         5.44054590473826    1.71279604980249    3.60377046469078
C         5.25657954794245    0.65815420853482    2.70716493740590
C         6.39413021459856    0.20412560507484    2.04421939798106
H         6.27929474153744   -0.60007628802517    1.34235218308352
C         7.66209189343462    0.73640786893894    2.23686581624042
C         7.79976997805057    1.76465041719315    3.16115282462544
H         8.76235866662144    2.20817360306194    3.36115362383380
C         6.69733167519309    2.24310762322198    3.83680948684349
H         6.79445086779595    3.03867009097045    4.56122658616491
C         3.88784323535027    0.03017641059598    2.46834530223246
C         3.95072523561561   -1.17224031769633    1.51898182536500
H         2.95179211058829   -1.58902051527223    1.41115668879305
H         4.59776189258294   -1.95258428303470    1.91301367562073
H         4.29541775831689   -0.88145065054828    0.52935838054893
C         3.31517727496362   -0.47031067283388    3.80246742838834
H         2.36709506298646   -0.97493278092665    3.63099307951089
H         3.14144575604293    0.34690233037164    4.49422102153570
H         4.00391628624176   -1.17463865069077    4.26535983279238
C         2.94389290417804    1.06327000464855    1.83680607892362
H         3.32098986651530    1.37257873773498    0.86411826678360
H         2.82998709642143    1.94856628299342    2.45904516232360
H         1.95651777799509    0.62778922975106    1.70187006727228
C         8.88522617392568    0.24252385681667    1.47913918977515
C         9.45335103935508    1.40622239968062    0.65422065336313
H         8.70529180066659    1.76650255561147   -0.04917008130894
H        10.32455160839270    1.07761757645797    0.09174118305961
H         9.75165429212831    2.23397116519555    1.29158367253761
C         8.57109566631743   -0.91154295997031    0.52347796375064
H         8.18256277658162   -1.77215682861425    1.06273511124044
H         9.48387668056652   -1.21854694848807    0.01697113227227
H         7.85357225432614   -0.61012430096697   -0.23601975899857
C         9.93728634583928   -0.24504713756994    2.48495134949063
H        10.25713660848005    0.55496919210390    3.14622099585783
H        10.81208393821696   -0.62059207860802    1.95860683918471
H         9.52970595063967   -1.04880523321147    3.09424200348301
C         4.25463811825525    4.31370992368810    6.92314795454181
C         4.70662244484565    5.22706852673769    7.87966946260936
C         4.21227798166740    5.07129271490754    9.17181653833214
H         4.53699479768249    5.76716634247096    9.92211964337349
C         3.32176131971526    4.07216682047771    9.54265207669517
C         2.92785923316031    3.16509243205740    8.56699141386289
H         2.25339180475735    2.35628491713477    8.79722697518173
C         3.39554996349362    3.28695583652992    7.27611144373060
H         3.10574001702224    2.57024654033337    6.51956178963041
C         5.70809971554979    6.32433161971795    7.53482798631124
C         6.99693256469780    5.67790206601705    7.00659647855391
H         6.81297108929019    5.13098711289214    6.08779201893291
H         7.40326760790378    4.98950533417015    7.74524170053015
H         7.74061035460558    6.44498538408513    6.80099343925491
C         5.11508405104562    7.25767690802722    6.46996656905981
H         5.01025060281054    6.75362057749608    5.51520726508210
H         5.76788668399774    8.11552545387850    6.32257768052920
H         4.13784333251060    7.61884726368656    6.78458340189815
C         6.08187086440063    7.18139983047123    8.74924253279167
H         5.21481036864596    7.70428607222049    9.14569173222664
H         6.81087879594698    7.92964181650457    8.44470603430566
H         6.53242854936673    6.57963992225106    9.53501131930457
C         2.78023538014387    3.93244254291062   10.95673576331824
C         3.30611591443624    5.01183801239690   11.90648731481412
H         4.38808706600911    4.95866008526319   12.00250243951289
H         2.87555842242555    4.86186677724870   12.89422143088754
H         3.02367743331011    6.00519352718690   11.56640906418048
C         3.19194704806445    2.56264431973832   11.51424885546220
H         4.27595618609093    2.47080699218893   11.52542605204788
H         2.78753988180722    1.75283697738874   10.91434684516687
H         2.82501559092948    2.44817236030219   12.53174594014662
C         1.24965832754917    4.03857171047541   10.91157738071783
H         0.83933363127636    3.95751413709701   11.91564702836523
H         0.81465025081852    3.25237704058889   10.30196929550626
H         0.95109746614145    4.99671945053778   10.49245361231752

