85
CSD_code = HIXGEB | q = 0 | S = 0 | Stoichiometry = C32H47MoN3O2 | MND = 6
Mo        4.22386341568682    0.49038822793658    4.92416613547234
O         4.29879579839356   -0.71648105951147    6.17727742149814
O         4.25519265140710    1.86707373303279    3.88425153649063
N         3.41769970066440   -0.72256099801827    3.59260320952742
N         5.25218795871110    2.01973690136797    6.60712618093605
H         6.25409128726669    1.89564622163143    6.46918143412743
N         7.16682772606207   -0.10846624540829    4.54557367945750
H         6.87536166241611   -1.06818514512537    4.72756361984931
C         2.47622185629544    1.19968054852186    5.72713742786774
C         1.90398816528211    0.56308155369411    6.85566611384101
C         0.98294419942450    1.24824347390568    7.64868766854078
H         0.61925512926180    0.80400350863153    8.56380886178118
C         0.56607535323562    2.52276474248319    7.31703688648150
H        -0.10836738160876    3.06284285945609    7.96576207178433
C         1.00714757241715    3.09343245651846    6.13963181459705
H         0.65938135984492    4.08428717091986    5.88758394500274
C         1.92985444570175    2.44246646947902    5.31749725344586
C         2.23902652338707   -0.81836337731268    7.25812323363970
C         1.30768118512270   -1.58334432052175    7.95917385760589
H         0.32113861938010   -1.18675175349321    8.14282874284110
C         1.60632416632199   -2.85575215278826    8.39751324695660
H         0.86653804301500   -3.42974362354744    8.93597825955610
C         2.85167645137417   -3.40405567084836    8.14661181141241
H         3.06065933932605   -4.39410908936560    8.51620365614221
C         3.80632312476413   -2.71132849895339    7.41743139219318
C         3.48270778388116   -1.42057246157053    6.94637681965463
C         5.16682973066599   -3.32214066315629    7.09402939453536
C         5.38245293580933   -4.69253940974843    7.74445625109028
H         5.31321393405033   -4.62815430058497    8.82787593411475
H         6.37647550640441   -5.05749504983870    7.49053505017566
H         4.65829571595150   -5.41849350782381    7.38371116916411
C         6.27465442389680   -2.38905838969100    7.60446148909593
H         6.20124004736930   -2.27859330309453    8.68535410173235
H         6.18351354116664   -1.40458168138425    7.14755097193636
H         7.25665966323192   -2.79573941309431    7.36559674008341
C         5.27522703554563   -3.49549220533242    5.57234608411475
H         5.07093833223796   -2.55297990022126    5.06288271575254
H         4.54421215436316   -4.22632006646486    5.23196333523804
H         6.26863771327123   -3.84889198394187    5.29628826310565
C         2.30141790794302    3.11312202783787    4.05450242792818
C         1.44242245532736    4.04223307002747    3.46677398292173
H         0.46958076979938    4.22176272092728    3.89673438224087
C         1.79313651632162    4.72525942083051    2.32177841652589
H         1.10882268082601    5.44132250282538    1.89075946545940
C         3.01653003946147    4.49581358093372    1.71670273179262
H         3.26631888861125    5.05788411935028    0.83237339009826
C         3.89343351886041    3.54690672944329    2.21924627723249
C         3.51800007643194    2.83763291189621    3.37939808987267
C         5.22146310023520    3.23086002238718    1.53887410933254
C         5.50818356058638    4.14365138060669    0.34197113197814
H         5.54757251341673    5.18751377731606    0.64497588136374
H         4.75444371497953    4.02563413448210   -0.43231353890662
H         6.47276764709575    3.87986436763475   -0.08863194899296
C         6.37017389483838    3.40695712538939    2.54394473149523
H         6.36096968105923    4.41869613158132    2.94813483453299
H         7.32727658182962    3.24505335297951    2.04974394328779
H         6.27903802099261    2.69447465227200    3.36485186821168
C         5.17733917926736    1.78121411726710    1.03551181033548
H         4.38902259789210    1.67204110466679    0.29294740692877
H         4.97152557084715    1.09548777252236    1.85853725192952
H         6.12663333884321    1.50960788793873    0.57566332188245
C         4.13175862534951   -1.54220761456955    2.64690317604847
H         3.89671758117827   -1.25675193075504    1.60830683312534
H         3.86375039902045   -2.60559724279646    2.75586050672413
H         5.20724326559781   -1.44170376141115    2.79792741339343
C         2.00194306873427   -0.90596813698778    3.38623442965694
H         1.71248558963027   -1.95686342215700    3.54061640078641
H         1.71288584348127   -0.62964197055610    2.36043231586716
H         1.44493878613996   -0.28571592771971    4.08411318018067
C         4.93807958722686    1.64330382469834    7.98127796040841
H         5.46757179065947    2.27628505619209    8.70780535187371
H         5.20988825527175    0.60288165665344    8.15740077641744
H         3.86534029439870    1.75204110263057    8.14279802601770
C         4.95449251176874    3.43279737724078    6.39643316558440
H         5.48224725848875    4.06954557739176    7.12079628136240
H         3.88241371869120    3.59301738297331    6.51079434376613
H         5.24580940816155    3.72930383913514    5.38983278584954
C         8.15194097696333    0.26599292646375    5.54943758002093
H         9.07203781616571   -0.33331839956009    5.47813915815617
H         7.73855520737183    0.13528430030141    6.54789587622598
H         8.42530629059366    1.31314866303896    5.40686473632868
C         7.75704126401239   -0.04991453270196    3.21592424253536
H         8.64078305918595   -0.69827404397632    3.12028279384746
H         8.06365340365448    0.97503752385411    3.01131985357321
H         7.02219687176650   -0.34532875524933    2.47177506394989

