97
CSD_code = HIXHIG | q = 0 | S = 0 | Stoichiometry = C34H57LaN4Si | MND = 13
La        0.28864591850709    7.21911722494980    5.83689275057804
Si       -0.49799543441958    5.55439810037918    1.38942236739801
N         1.93770098929626    5.46393791096218    5.48533230927467
N        -0.65337408283897    6.98663494130280    3.74808208111168
N        -1.35202004919839    7.90236360947578    4.42844902320306
N        -2.39832383529533    8.28881416171883    3.74817493874175
C        -1.82950188450876    6.79945311082572    7.34911893444970
C        -1.70525062705120    5.57782182073132    6.63348940399561
C        -0.55052462246629    4.90525930574733    7.10798477962651
C         0.05149525306653    5.71027128422152    8.11458624374747
C        -0.74150762936199    6.88362019645397    8.26998073504870
C        -3.01617453807224    7.72523189239236    7.30263296910120
H        -3.32621843392463    7.92537076737498    6.27684524824908
H        -2.78819939258304    8.67587208650517    7.78134407035892
H        -3.86295073064767    7.27789750376027    7.82908087255056
C        -2.70943605449464    5.01383181268921    5.66636368319458
H        -3.41357361063186    4.35893213720939    6.18609684591656
H        -2.22235819431132    4.42786102582683    4.88568772191997
H        -3.28246482923029    5.80879443611795    5.19213337289697
C        -0.18384825714541    3.48630842433006    6.76739723674145
H        -0.91646796093218    2.79811560323433    7.19590594382061
H         0.79236859529224    3.22867890191077    7.17446198038959
H        -0.16933407276565    3.31838892102199    5.68852734802757
C         1.19517088315090    5.27671107618674    8.99401297562762
H         1.55486481539431    6.10222390079651    9.60468702489852
H         2.03636128400220    4.89809524475970    8.40814727821190
H         0.87536135304819    4.47997873133627    9.67021471013998
C        -0.69631228572019    7.84952691668556    9.42563243668456
H        -1.47715042440501    7.59444639076249   10.14679250277184
H        -0.87073071244935    8.87668624998569    9.10430477610489
H         0.25737991126407    7.80807793394932    9.94563338815306
C         1.09853035627639    9.67588014733279    6.12211141909843
C         1.39660414944482    9.37991912467916    4.75903900581120
C         2.49680117213191    8.48511896870499    4.72864931148282
C         2.89596280060046    8.23660847041603    6.06747912478323
C         2.03567370723086    8.96972577874734    6.93167663320605
C         0.11077608906239   10.72447056575775    6.56817154908218
H         0.45903740406903   11.71742037017162    6.27406248131582
H        -0.00589347899326   10.72248610602240    7.65067703642179
H        -0.87005367643851   10.56714425406258    6.11272460127645
C         0.79125139262961   10.06180828850277    3.56240881795283
H        -0.23487166819692   10.36800754776038    3.76008407352751
H         0.79306177580139    9.40670681626480    2.69103673363235
H         1.36673926148980   10.95599540180518    3.30793943244581
C         3.17986910230464    8.01969434781982    3.47159476005330
H         3.86201184785927    7.19496255876743    3.67178746011245
H         3.75903233428082    8.83314542195528    3.02845366515077
H         2.45098881644831    7.68843784820755    2.72938766127277
C         4.14047509114909    7.53156439414985    6.53247469172551
H         4.59170986731199    6.95494534026215    5.72700570376228
H         3.93341521746863    6.85926012213477    7.36751412223122
H         4.87990825549111    8.26032241344454    6.87364295871889
C         2.33752634367381    9.20731575953848    8.38672456521449
H         2.53536510334489    8.27480559427620    8.91602386219925
H         1.52314474268210    9.72525768191908    8.88646484430387
H         3.23202563691105    9.82930484312776    8.47944435935551
C         2.72009795600614    4.63649243889676    5.34219426249304
C         3.70390460194528    3.59684348021470    5.15842248267418
C         2.97580764061273    2.31044429118277    4.74388625690878
H         2.27923503483076    1.99354785095041    5.51633092920740
H         3.70384566267433    1.51830305022441    4.58557435669798
H         2.42178471134471    2.46578707344912    3.82140816703162
C         4.44840096696538    3.39617734286456    6.48589300753142
H         4.93881914358066    4.31615726913691    6.79644366578709
H         5.20377560047561    2.62349337665344    6.36430310047947
H         3.76129859240353    3.08705661890536    7.27071916204968
C         4.67400698721217    4.03979194037474    4.05403608798750
H         4.13846406696460    4.23176671554134    3.12698073781473
H         5.40487349657957    3.25407841982813    3.87791559573417
H         5.20411685658295    4.94444888135023    4.34365446709489
C        -1.28474733875575    6.78179180854847    2.56928830752542
C        -2.40547112235931    7.63293718837504    2.58635726689029
C        -3.51511438254482    7.83798569592468    1.59700023243618
C        -4.48975729836755    6.65762497539052    1.70359845382123
H        -5.30272158116086    6.77382956079456    0.98924825360997
H        -4.91336917728805    6.61154795473355    2.70464502166203
H        -3.97824731547536    5.72006293522096    1.50308508645433
C        -4.25623128027909    9.13538251474663    1.93488906250690
H        -3.58411213665486    9.98568327772679    1.85127185192831
H        -4.62879543611557    9.10065444383100    2.95429789308178
H        -5.09281290278687    9.27974005667320    1.25382321155785
C        -2.96580119123236    7.93352852284810    0.17211041684279
H        -2.52300250554887    6.99115559136376   -0.13500469839943
H        -2.20643930847861    8.71021786193001    0.11057744175498
H        -3.76904543012833    8.18043840657157   -0.52004231306793
C        -1.69942107503986    4.25599044628452    0.66496775846698
H        -2.38369254407632    4.68129124703146   -0.06173206427867
H        -2.29394336486311    3.78272825185588    1.44112492200992
H        -1.14114658077045    3.47339052646624    0.15936401243057
C         0.79898399707707    4.58467032717018    2.40879278090463
H         1.24391842873985    3.78141397902683    1.82711753832398
H         0.34740818892320    4.14884794200260    3.29601745064416
H         1.59527632641042    5.24547062661079    2.73871827951304
C         0.45114298799694    6.42294911394042   -0.02689097173290
H         1.02581168332032    5.70273695278779   -0.60227781892842
H         1.14666737041446    7.16144111670429    0.36171224637157
H        -0.21259131379308    6.93447013639507   -0.71571672888240

