63
CSD_code = HIXLUW | q = 0 | S = 0 | Stoichiometry = C28H26FeNO6P | MND = 7
Fe       -1.11306431501691    3.87180039929721    4.00138718220621
P        -3.21139965500949    3.89420811536753    4.64526377456557
O         2.31180718099945    3.26373105384910    5.33086850711728
O         1.60242327170205    1.69658593443408    3.87082878896129
O         3.03601648530465    7.85779566317146    3.61074190474666
O         1.00305936009557    8.24304891366316    3.03685485388323
O        -1.32581627142564    1.45104596247426    2.43267950358153
O        -0.38021099486279    2.92566779991167    6.64511580722709
N         1.97395878736250    7.52654191760586    3.13932135817525
C         1.68398401170026    2.96381874287922    4.34113884313725
C         0.89947709852376    3.87974686488044    3.49136861143767
C         1.12346299559883    5.34838169909938    3.82571686327989
C        -0.25679218487438    5.88849904588292    4.15180642498538
C        -1.30573112624073    5.86637931627754    3.24472804819116
C        -1.39114612291912    4.91385906364180    2.20240133653208
C         1.82268293042603    6.13815147647123    2.69879303914818
C         2.23365543988932    0.67806116084743    4.63095018969016
C        -1.27927507796483    2.38241920546703    3.09366954090769
C        -0.64776653355470    3.32073796186325    5.60578501963252
C        -3.75953097597480    2.47697289435085    5.66716786631577
C        -4.93248113279620    2.54269101049137    6.41470347920942
C        -5.34440284239345    1.45299569109839    7.15979652167735
C        -4.59484143298666    0.28807872315164    7.16463792911000
C        -3.42991006434414    0.21441319994733    6.41917027337620
C        -3.01293992254054    1.30311044264754    5.67419141834038
C        -3.76779284040447    5.28682529041523    5.69008707872444
C        -5.05278883736979    5.82196271424619    5.65956816988533
C        -5.38945764395960    6.85849731769049    6.51253678192159
C        -4.45633223125815    7.36407023678810    7.40261458189351
C        -3.17902975818490    6.82874189549092    7.44379263562696
C        -2.83657179285835    5.79652434871663    6.59055211796449
C        -4.44691169443870    3.83780583291947    3.30494920317158
C        -4.93401408606756    2.61029346397003    2.86555698204360
C        -5.78811209687599    2.54858742887023    1.77958598027776
C        -6.15364198319902    3.70729012966313    1.11427609517878
C        -5.65584654039425    4.93071756979983    1.53305196708560
C        -4.79968603589294    4.99681362166284    2.61662718562402
H         1.06887183322552    3.61511706700734    2.44756064484002
H         1.74974298376556    5.40017100151921    4.72432378059352
H        -0.31113388497660    6.60938596752463    4.95950430741138
H        -2.18634661398932    6.45545316642983    3.49298736152141
H        -0.54224611295802    4.74737132863181    1.55347456636661
H        -2.31856853301826    4.91219691998066    1.64036261145106
H         2.81267596852499    5.71981929985926    2.51194857651567
H         1.20756732324799    6.13510564303200    1.79779429293318
H         1.46617915438156    0.05766593136017    5.09753608779256
H         2.83655045105342    0.07478531635822    3.95301695738866
H         2.86247783408114    1.12873804601698    5.40139843761530
H        -5.52086985708262    3.44879536501467    6.41889177548041
H        -6.25336809924043    1.51402317982868    7.73992764792756
H        -4.91752781288247   -0.56014584477836    7.74951716723728
H        -2.84312892663519   -0.69200647828906    6.41922897472152
H        -2.10220210914397    1.25207342511085    5.09254156907556
H        -5.78887760851649    5.43440808718928    4.96870737449078
H        -6.38680716944522    7.27243626998087    6.48167626678616
H        -4.72475452440566    8.17498870575655    8.06289397452624
H        -2.45009127123566    7.21859081576190    8.13836162812406
H        -1.84130302018098    5.37414579673666    6.61068133336091
H        -4.64253840969192    1.70481756627209    3.37956911438842
H        -6.16700372013622    1.59288104508591    1.44910192828305
H        -6.82058068073625    3.65739889623098    0.26668550269174
H        -5.93072977850398    5.83500736373250    1.00999399958435
H        -4.40932078337239    5.95350400955328    2.93652825410222

