26
CSD_code = HIXLUY | q = -1 | S = 0 | Stoichiometry = C12H7Cl2N4Pt(1-) | MND = 4
Pt        5.72473099030507    0.36840261477059   15.51685302535163
Cl        1.11469415550643    0.37849027652419   10.77049089544086
Cl        5.82427602872248    2.36134677414025   12.32986253206479
N         3.06850560222601   -0.60894597995909   15.40085141791681
C         4.41173933569105    0.68362650068011   13.93153883170071
C         3.21186803813158   -0.03459709746409   14.12404456576930
C         4.01952793323495   -0.37753011042707   16.34473481095273
N         8.35586636570915    1.06736254044956   14.02503524174436
C         6.86581982160818   -0.01670330631141   17.06600345107699
N         3.56777051249110   -0.99117495842643   17.45817993546866
C         7.36327495151848    0.84413266247251   14.57117815390137
C         2.03866635124031   -1.34089219838075   15.92131875380056
H         1.18166271366616   -1.64859465098677   15.35837563365529
N         7.43912694843189   -0.25517863252780   18.04286421975306
C         4.46972064386072    1.34336717885187   12.70314414183752
C         3.47979204698402    1.27066967163922   11.72843819724605
H         3.59302196208993    1.80253037909252   10.79729450272812
C         2.19593909565668   -0.14580412363824   13.18630957382016
H         1.30056327529196   -0.71903824675132   13.37303212964413
C         4.20553310690579   -0.99928524582580   18.74498816961853
H         5.23612749648602   -0.66101233886265   18.63551780603110
H         4.20065575282144   -2.01055298448373   19.15524428751401
H         3.67951042326568   -0.33387783628063   19.43488215990210
C         2.35955868444593    0.50703218042818   11.97946451165371
C         2.35420801979498   -1.58223516545781   17.21632694258463
H         1.82053974391446   -2.12263790326770   17.97272610882399

