47
CSD_code = HIXQEK | q = 0 | S = 0 | Stoichiometry = C15H27IN2NiSi | MND = 4
I         3.40021519002460    7.46757604634737    9.78466427996194
Ni        3.22415238688775    5.05142459375380   10.00814411604733
Si        2.78053519843962   -1.45362747189406   10.59075369796087
N         2.13093131331486    4.97264988304584   11.81461844701168
N         4.26752265518171    4.48539978774727    8.26020768223472
C         3.09347276564628    3.21824250316349   10.18101357743427
C         2.24067953629119    2.66383503110625   11.12961303652410
C         2.14853362293069    1.28649790643204   11.25420145359307
C         2.88995322185536    0.43766321132726   10.43843548870562
C         3.73711185106534    1.00882663058251    9.49210326729897
C         3.84647626260973    2.38309533679682    9.36105196421156
C         1.45333365339077    3.66031345934565   11.92609670945565
C         4.75604575123685    3.09491207908778    8.40548533084825
C         1.16176478241495    6.02957705001891   12.11602683566394
C         3.21267865752516    5.04047060573688   12.80909928815487
C         5.36787105135800    5.32233981603211    7.77451864135993
C         3.18943670904199    4.51355681125657    7.25990342768059
C         4.46808954165989   -2.11627117619353   11.18872860255395
C         2.36903970159800   -2.18599432439679    8.87694679062141
C         1.42182371319857   -1.94477723437849   11.83311104703724
H         1.48339883250512    0.87143854374689   11.99776693331092
H         4.32522778598529    0.37166588582787    8.84598658849555
H         3.76741691372721    5.97295822900144   12.69247189128779
H         3.89744089266130    4.20030077762564   12.67970096386683
H         2.80089444891163    5.00498779264157   13.82622508201914
H         5.00893513161871    6.32123330553669    7.53703579402491
H         5.80912742180420    4.88349507917861    6.87110269610243
H         6.13710013930795    5.40950767782919    8.54153494331288
H         2.76814951187896    5.51817736139592    7.19516058700797
H         2.39920265791972    3.81330443975173    7.53677310769636
H         3.57653872345207    4.23369809486834    6.27137122736529
H         4.72975867409662   -1.71513064793200   12.16343716054931
H         5.26461500985259   -1.84790457567393   10.50137474996034
H         4.45697517669728   -3.19884748513037   11.27085318714617
H         1.43189685695173   -1.79535022890431    8.49158525651635
H         2.27922971238771   -3.26686200180634    8.92623498420232
H         3.14219921859363   -1.95628934015983    8.15031320318185
H         1.32433625651843   -3.02465382051436   11.88569521880638
H         0.45397302986944   -1.54413894917787   11.54751840124073
H         1.64711077404320   -1.59058948565011   12.83433469555052
H         0.45031569598344    3.74955671069574   11.49333592564439
H         1.34064161708916    3.37283303639209   12.98130053317162
H         5.76613768520570    3.12454928374974    8.82996547023652
H         4.81691687701039    2.60284327258747    7.42414316302757
H         0.67456165602545    5.83518552761916   13.07949538851463
H         0.40314356781331    6.07393892262344   11.33490447503504
H         1.65728816641796    6.99658204895985   12.16495468836628

