107
CSD_code = HIXYUI | q = 1 | S = 0 | Stoichiometry = C52H49ClP4Rh(1+) | MND = 6
Rh        7.12663424936038    9.12309985513126   11.62516130584546
H         7.50992849231320    9.83855421378498   12.89671955074956
Cl        6.41305379453269    7.87269767352346    9.73371330017748
P         5.15338579886237   10.27792366324929   11.65576956984068
C         4.03610274554704   10.31787240970733   13.08748904098783
C         2.75029462138707   10.83888514508347   12.96582870722300
H         2.38268468491100   11.15601858126329   12.00009983940850
C         1.94190120417602   10.94144739653326   14.08246332384519
H         0.94248759577473   11.33741012925676   13.98428638147964
C         2.41112026146665   10.54299120271277   15.32481013166847
H         1.77424255145793   10.62403693702107   16.19230013010308
C         3.69796814722329   10.04829871954811   15.45306333027102
H         4.07110607739844    9.74596466565750   16.42052394930055
C         4.50820632215168    9.93795651720788   14.33665626063145
H         5.51433737056368    9.55050436925998   14.42560369474678
C         4.06070873264716    9.95830293561749   10.24518098993476
C         4.37164439536465   10.46813877759152    8.98805173059741
H         5.23467763254063   11.10625532709475    8.85974282124778
C         3.59359555201084   10.13850969321977    7.89480536247201
H         3.83966993517957   10.53862411074143    6.92257555193835
C         2.51139924461481    9.28615259017429    8.04420038684191
H         1.90939917205167    9.02410326411710    7.18763251852511
C         2.21151975390097    8.75966844001120    9.28983732550572
H         1.37673321974367    8.08534764363746    9.40810973278794
C         2.98500996171637    9.08626432414654   10.38813680578400
H         2.75619366364406    8.66835893865390   11.35847387052490
P         7.94997012812124   10.99642857483726   10.53828465890246
C         8.30720978954271   11.20191353766237    8.76062879573941
C         9.00641517494437   12.33828321211001    8.35365072422743
H         9.37918513099570   13.03799100458703    9.08863922138256
C         9.22472122388268   12.57097674886582    7.00969397007449
H         9.77302380734075   13.44852878640240    6.70176579495543
C         8.73770515506094   11.68583700879920    6.05960995536159
H         8.91409218641323   11.87051465041961    5.01091645723507
C         8.01560218112570   10.57520719261773    6.45897649649797
H         7.61752883632584    9.89215518329794    5.72371046860119
C         7.79451267300113   10.33385039008454    7.80462297966752
H         7.21575581891100    9.47358045290245    8.10436466710020
C         9.45908477832403   11.63490302532316   11.33005053438223
C         9.35799731833541   12.25284661954600   12.57449523648424
H         8.38725300551969   12.37586626962046   13.03674108936854
C        10.49358231145699   12.69571498236192   13.22739776919530
H        10.40615006436637   13.18336893754745   14.18679295132931
C        11.74137479718108   12.50881274070372   12.65288679565937
H        12.62769687993332   12.85307270025895   13.16324285180784
C        11.84868845916316   11.87869532194025   11.42419965687189
H        12.81812178184273   11.72756174945270   10.97437747393145
C        10.71470546171497   11.44086854431852   10.76280468610361
H        10.80353005419228   10.96055392995987    9.79925077936572
C         5.55764303141095   12.08713938174421   11.60424517541661
H         4.66265607568840   12.63857045085245   11.29844721947407
H         5.76795238149057   12.34368030642490   12.64909327235271
C         6.75381517603287   12.42276713493407   10.72424355478957
H         7.30024000094183   13.28480523474730   11.11796352827877
H         6.42538307595479   12.68290893229917    9.71400410880993
P         6.38402284486875    7.18799900091097   12.62580485515616
C         6.67641535144466    6.91732602836478   14.40952250342347
C         6.25499447986777    5.71056219694231   14.96669329352117
H         5.72317506895056    4.99293489697976   14.35533361418710
C         6.50071120083565    5.43534404351306   16.29759132963666
H         6.16915713112390    4.49958004119638   16.72164368076341
C         7.17039740141230    6.35835470985556   17.08700210866210
H         7.36236436934821    6.13997646445050   18.12625493924809
C         7.58921960837012    7.55826921389861   16.54033573345643
H         8.11207407043827    8.28031791391175   17.14914902878222
C         7.34345581718598    7.83639966586837   15.20668805779209
H         7.68678839437335    8.77061531489324   14.78339652440589
C         4.64180365193493    6.69239923049022   12.45353440014374
C         3.75871193431539    6.94506455930048   13.50289579973325
H         4.12079851403936    7.39267978055188   14.41684367245937
C         2.42270309865502    6.61083008689912   13.38701658525859
H         1.74989012750704    6.81275345595976   14.20699893116340
C         1.95170345727890    6.01589619261150   12.22708852449972
H         0.90925061381435    5.74955985083623   12.14129753624947
C         2.82298686493803    5.76538350228379   11.18034644932790
H         2.46320638217329    5.30365309913000   10.27336218520996
C         4.15928837429751    6.10830731459676   11.28506881091087
H         4.81340661413422    5.93396629710560   10.44449175337994
P         9.07601240767443    7.90264102854646   11.66171007178141
C         9.90709402825361    7.79671651087945   13.27344833572531
C        10.04648313941906    6.62557052764535   14.00820598673628
H         9.67310969539710    5.68493929907169   13.63342214845198
C        10.67049788090141    6.65504112645204   15.24395944042032
H        10.77279890031245    5.74161776409129   15.81022085649867
C        11.15980507789528    7.84502188598961   15.75397321811370
H        11.64554292193768    7.85999604839296   16.71759149064782
C        11.02549342584224    9.01668636620626   15.02471932126361
H        11.40761049483720    9.94804365978971   15.41514713667139
C        10.39848226425507    8.99291785806453   13.79461606179818
H        10.28045369163737    9.90227368856671   13.22155979063220
C        10.42409356205236    8.21844661480320   10.48931497273513
C        11.75632672736461    8.34549472737349   10.86509364002790
H        12.04215987186934    8.25661393257195   11.90288676208187
C        12.71798412004421    8.58586574511019    9.89887379808300
H        13.75356804093715    8.67876204416169   10.18956962418034
C        12.35882520376115    8.70839205414346    8.56635134107857
H        13.11401254487595    8.90447359755522    7.82052082721548
C        11.03106666241484    8.57505752081419    8.18932844483149
H        10.74773342892852    8.66665317184385    7.15147925788347
C        10.06668664689556    8.32711771321279    9.14704318935587
H         9.02999691407604    8.21558169126736    8.86179695350243
C         7.33309439169378    5.74266746677865   11.93212703946888
H         7.54103266392308    5.07497332558133   12.77324426842834
H         6.68316571118653    5.20997778222046   11.23414108504090
C         8.62263739793643    6.17231663061268   11.23222549112107
H         8.48441237981010    6.17066787427816   10.14625795673279
H         9.46659249285586    5.51360895484130   11.45837468636737

