53
CSD_code = HIXZET | q = 1 | S = 0 | Stoichiometry = C12H36P4Rh(1+) | MND = 4
Rh        3.96247378322290    3.21009587802895    0.71773352132588
P         4.02163409697310    4.65259958031199   -1.06460187253806
C         4.38389634630181    6.36836149380705   -0.51891732609519
H         5.44366691874924    6.48145748128876   -0.30347674118665
H         3.81427615116400    6.58234021708367    0.38510292983294
H         4.10398024313130    7.07638861226822   -1.29769959559372
C         5.00070898465143    4.59566734790668   -2.61872012814462
H         4.77570323119385    3.69178089659470   -3.17851335699457
H         6.06519649910546    4.60486514200801   -2.39978650719415
H         4.75279828429977    5.46464916978686   -3.22709281641363
C         2.34036796775953    4.92613742648381   -1.75071271412201
H         1.63532892236803    5.04400842671537   -0.92818988381760
H         2.03654237266599    4.07627517410553   -2.35708174311108
H         2.32836276290378    5.82346565029154   -2.36779723937836
P         3.15710738794345    2.59053982684179    2.77444518974192
C         3.55222904029820    1.13492232055235    3.82399121119315
H         3.31670705411907    0.21198823659120    3.30065949811762
H         2.96483842636535    1.18728956241825    4.73990891907056
H         4.60897172307263    1.12316620372161    4.07734485742255
C         1.32321288268529    2.49511249199099    2.76715758542199
H         0.99367384011617    1.57835085630965    2.28422487480471
H         0.92460866705793    3.34751919338174    2.21760238156253
H         0.94274743793258    2.51377962689041    3.78741890010110
C         3.36276704772011    3.94174977883075    4.00078889464191
H         3.09954327638912    4.89010711026553    3.53288574716196
H         4.39443885117153    3.98992536543372    4.34072243207797
H         2.71488105480299    3.77058539676336    4.85927553816556
P         5.96266609356923    3.94546229105116    1.56488574552039
C         7.25789026640727    3.98223525577374    0.26358062564091
H         7.17615763375305    3.08150656182077   -0.34437874017243
H         8.24665461579480    4.02205618654438    0.71841453936373
H         7.12781542000163    4.85225289606723   -0.37548177438511
C         6.38128496099493    5.48204485126236    2.48152313665158
H         5.81177202357765    5.54124522802086    3.40527441507715
H         6.15055563431229    6.35885458627156    1.88219223470412
H         7.44508075901948    5.47825416424574    2.71627441274564
C         6.71655605691632    2.69111814276092    2.67417670926799
H         6.59740537854615    1.70414551619202    2.22774941953203
H         6.22645303561818    2.70141283540796    3.64472368002248
H         7.77668942733051    2.89973557664970    2.81101062709915
P         2.71200435224792    1.64776213139234   -0.40370796143921
C         2.89298640517753   -0.01406467151057    0.35679794606034
H         2.29147338569117   -0.08456562328004    1.25988922568950
H         3.93933203922980   -0.17544643090586    0.61510720982530
H         2.57140627384146   -0.78400761333737   -0.34310426977769
C         0.92179586879905    1.62171697621829   -0.81718637668753
H         0.32065898499093    1.65615290085724    0.08757633003694
H         0.69607844082206    0.70608788743490   -1.36250710788013
H         0.66033871839471    2.47822103829112   -1.43300572803631
C         3.43165872524885    1.28111318706716   -2.05287868137868
H         4.51464091792633    1.20361975886670   -1.95933628315614
H         3.19377416790010    2.07696404572458   -2.75448197621115
H         3.03420715973326    0.34199385443707   -2.43517991416461

