73
CSD_code = HIXZIY | q = 0 | S = 0 | Stoichiometry = C35H34ClNPRh | MND = 6
Rh        8.50158422033205    3.71827784554293    6.88692942471535
P         6.22610687004635    4.35958179435270    3.80409320586134
Cl        9.03919433933514    5.95703291207741    6.85900723712410
N         5.85313753985078    4.67263981570001    7.69337223596268
C         7.83819525077446    3.62984320891261    3.45588245203457
C         6.92535759613977    7.31399928106267    1.08849662022751
H         7.33710788994677    7.39326516300832    0.09307814906433
C         6.30756416224127    5.98018762645690    2.98620880024955
C        10.23701174481830    3.32043769004764    8.10557310524498
H        10.58626261365394    4.27978432536428    8.48802274837778
C         4.58760781200964    5.04786294503124    7.31413137996853
C         4.38903506434996    3.75141700839879    1.73997192391324
H         4.67630202101579    4.68144849915187    1.26999108918955
C         7.97769665952291    2.48323465153569    2.68392633240929
H         7.10369444211465    1.94045482187131    2.34946441021770
C         4.58192406990133    2.18425833168108    3.55896542468413
H         5.03042148788881    1.91287006851791    4.50580031369480
C         2.24690760248260    5.68603140852367    6.01184152085913
H         1.31794675587942    5.94358163773316    5.52400101763663
C         4.50559471730089    4.94795023146996    5.90845474406993
C         6.61919904379549    4.32217451180990    6.62263816781694
C         3.42906542114044    2.94222665936280    1.15705541048385
H         2.97201913258671    3.23962473955598    0.22481683673575
C         5.80078359530015    4.48840219616997    5.48870064187918
C         3.32387342846992    5.27287226959984    5.25337826804089
H         3.25600981549690    5.20637126732290    4.17444940395417
C         8.95926818204068    4.33813749957353    3.89088229427090
H         8.83745141160554    5.25747365580875    4.44958640385777
C         4.97204579575670    3.36921029363560    2.94113643863413
C         6.31596380454065    4.72887379569307    9.05476297286812
H         7.39314687266286    4.52488005200381    9.05920693389843
H         5.79742201007737    3.99135478270031    9.67391577007631
H         6.14319718350194    5.72522862187619    9.46695754050222
C         8.11208778660381    1.73051736274124    6.32391430541699
H         7.24904881351824    1.67438568900481    5.65688174080127
C         3.05077882359408    1.75734879619006    1.76701810345634
H         2.30057630196164    1.13113685568477    1.30792347487087
C         3.62652968960821    1.37846617171165    2.96999248040224
H         3.32560321935954    0.45883667079423    3.44917168954740
C         2.33502737665618    5.78008518237503    7.39976058659778
H         1.47261431638804    6.10780027936334    7.96135712299335
C         3.50228188392962    5.46480854714072    8.06998117963479
H         3.56232308899146    5.54250931181432    9.14505646440486
C         7.85839022003677    1.87308077037990    7.69325328864393
H         6.81535703652605    1.93011889339527    8.00378246162511
C         5.88680761732481    7.12104218000099    3.65723742441795
H         5.50143912828641    7.03771125452584    4.66274745763516
C        10.56338353481380    2.98594885218991    6.80851930874232
H        11.14041044480794    3.71101018902079    6.23800601921892
C         9.24583297287355    2.04422488868201    2.34034936839344
H         9.35969520157077    1.15494224114122    1.73725260164374
C        10.36396130521278    2.75033713433590    2.75850883373155
H        11.34868286538058    2.40896337796125    2.47398517636195
C         5.97728374996817    8.35440862772231    3.03616694702851
H         5.65246820386252    9.24203339693330    3.55761280376687
C         6.49071812308243    8.45069791729814    1.75352279326672
H         6.56261791894679    9.41449483558803    1.27193399159129
C         6.84006310918381    6.07895500182423    1.70255190244016
H         7.19264488141642    5.18895022826000    1.19716501670554
C        10.22146130617937    3.89161034126967    3.53051335342342
H        11.09176521285002    4.44988246658167    3.84002718172552
C        10.66040637033265    1.55671909957680    6.32183235390054
H        11.40893107858639    1.50218389059566    5.52807875444292
H        11.01678633851634    0.93198303947953    7.14430142815661
C         9.32427481874773    1.00905752175374    5.78109518953389
H         9.23817303748468   -0.05949975637584    6.01566012343388
H         9.31507928860887    1.09727983682494    4.69388561769470
C         9.86367727907653    2.33205415744216    9.18792718880742
H        10.76679183143061    1.80523511227765    9.51757264532491
H         9.48975780345796    2.89417614587663   10.04814272377082
C         8.79221790482453    1.31516852567540    8.74855420677644
H         8.20974155398169    1.01847827914781    9.62389716114170
H         9.26781000543993    0.41276707230213    8.35916031000279

