57
CSD_code = HIXZEU | q = 0 | S = 0 | Stoichiometry = C29H22ClNO2PRh | MND = 4
C         2.52015290016506    3.26423970988551    7.28300489441326
Rh        4.44333264452967    3.87955382438334    7.02728321552131
P         1.81407561472631    4.59611583690523    9.67006482066228
N         1.92732533465455    2.35544464880577    6.46372819319212
C         6.27325973618363    4.02217901716012    6.66479010907195
O         7.37979394379879    3.87411144733080    6.41470296952690
C         3.82799597788319    5.41586520353028    6.23616017543671
O         3.37777499909765    6.38297282273823    5.80035891784195
Cl        5.04984102336066    1.91095241396362    7.98294740624983
C         2.53287329464508    1.78712056098481    5.28851819149959
H         3.53343641853283    2.22519457087357    5.16696002332006
H         1.92953282166245    2.00381957959900    4.40326090272921
H         2.63212141065711    0.70496642399729    5.39927515859352
C         1.59545863131375    3.51803612605708    8.31380207924732
C         0.41518958066596    2.73448645372007    8.09202086451119
C         0.67392956876106    2.01002514951871    6.90842716090750
C        -0.26204780704942    1.12871511980622    6.38654712440917
H        -0.06588472691703    0.57009144692903    5.48400459333745
C        -1.45688642785953    0.98659429812978    7.06493957211397
H        -2.20527043337727    0.30723558423165    6.68466095975351
C        -1.71951941376022    1.69995265065296    8.23475050512381
H        -2.66593075945347    1.55864824568503    8.73602743274526
C        -0.79304736957670    2.57607228713749    8.76092969363274
H        -0.99306561400399    3.12691436690992    9.67182094355022
C         2.05854376219602    3.71885126510063   11.23815182110327
C         1.81504300895307    2.35332664794174   11.31422857353835
H         1.47661447909909    1.82128328075818   10.43678153678147
C         2.02206275106679    1.68847985496713   12.51021291895618
H         1.83705246843708    0.62687532284433   12.57295235612831
C         2.47353318929039    2.38204951973081   13.62109398854659
H         2.63717437807712    1.86009709308472   14.55201300677887
C         2.72732628812762    3.74339951574080   13.54145859630435
H         3.08912964537636    4.27823418867353   14.40713065241060
C         2.52445884860490    4.41530701972637   12.35103242798158
H         2.73155625201894    5.47487961077391   12.27121654417193
C         0.36200012562319    5.66588391727881    9.83447906084692
C        -0.28592500912573    5.88407667320649   11.04325139516628
H         0.07669971820459    5.41148314408364   11.94544095360034
C        -1.40335999899883    6.70027586414384   11.08020868987658
H        -1.91230877959567    6.86977648845500   12.01742609558691
C        -1.87112777582658    7.29497202006547    9.91968655942235
H        -2.74416971198975    7.92914931145552    9.95495984297641
C        -1.22697011815929    7.07259932223552    8.71198290268217
H        -1.59639150448539    7.53241430430944    7.80779019417776
C        -0.11382048655924    6.25535793065127    8.66587256735978
H         0.39468839907188    6.05921526472962    7.73079507599117
C         3.27477915620381    5.62807756728132    9.45435696395490
C         4.51790367918347    4.97386096687369    9.48827520989109
H         4.56897307537945    3.93281735341159    9.79526182902652
C         5.67983515107729    5.73802344008723    9.38045855388025
H         6.64334856559018    5.25922959444310    9.47868770079039
C         5.59744859681996    7.10144455548830    9.15485180358047
H         6.50064935327442    7.68474203162359    9.05497684059903
C         4.36234402363604    7.73030497524041    9.07819108543594
H         4.30666136991497    8.79504080554136    8.90933864851987
C         3.19849283463612    6.99774445324535    9.23416611066575
H         2.23571291621751    7.48881890785928    9.19708358586491

