85
CSD_code = HIYHUT | q = 0 | S = 0 | Stoichiometry = C33H49AuClP | MND = 2
Au        3.51599007283932    6.55662013174491    5.73750413311690
P         2.55613539245379    4.86256869143825    6.86484668912443
Cl        4.33205772317550    8.30352482411673    4.53142392189883
C         3.24633598745845    4.31882948157420    8.46279417499859
C         3.01769460351100    3.11991391944290   10.54855974122711
H         2.40585671593577    2.54992408650918   11.23199656484923
C         2.47830434104976    3.58096885253067    9.36336718007651
H         1.44123239274906    3.37198726082485    9.14685949962104
C         4.57586978234209    4.62015468528366    8.78390897676653
C         4.34116188638693    3.39072390563439   10.85382833243151
H         4.77205322379789    3.02686789461938   11.77466016230156
C         5.10415002554531    4.14042051918849    9.97999859843705
H         6.13381368673627    4.36777230240092   10.21682842455212
C        -0.56594655059617    6.94845777355233    8.58459986853200
H        -1.14491825067103    6.15140224097817    9.05867074406720
H        -0.50487757014619    7.78066049263806    9.28821707600182
C        -1.26596437824597    7.39340218976660    7.30536373852353
H        -0.71101765627309    8.21992505757502    6.85697037975098
H        -2.27294941625625    7.74743604297697    7.53332660246430
C         0.83817130132075    6.44129244668955    8.27279649758511
H         1.32646488418370    6.11582857421418    9.19582182936974
H         1.43296447721068    7.25639060775541    7.84798432579901
C         0.79948114304966    5.28886421048602    7.26637742388769
H         0.28155739861320    4.42779422526165    7.70504856680317
C         0.06894108907655    5.72115631342985    5.99545443393731
H        -0.00699418720600    4.88311247603910    5.29927979066090
H         0.64554822513786    6.51254073193817    5.50488157148370
C        -1.33217289304829    6.23432545093954    6.31758355332310
H        -1.92664054512240    5.42377817502857    6.74815874786518
H        -1.82167245815611    6.55466662635452    5.39611443403532
C         1.50322283851140    2.24328385471586    6.30160831839804
H         1.56905322334002    2.02479334858488    7.36928048414527
H         0.50569603866041    2.63300160368466    6.08675691607641
C         1.71351627917906    0.95200607172270    5.51194688041707
H         2.68752540283390    0.52770286819272    5.76701300035991
H         0.94856624594667    0.22461930578538    5.79174746754943
C         2.70608518865835    2.25281100737147    3.61570702231623
H         2.64444519168914    2.45919471838196    2.54583898026346
H         3.70219693404517    1.85584976328229    3.82336444106568
C         2.56303984161417    3.26839700792124    5.90180413640297
H         3.55355765727186    2.84472359917443    6.12315188466255
C         2.50069947877651    3.54619381130929    4.39897358033493
H         1.53219861006513    3.97449687101710    4.13378142284712
H         3.26630870308383    4.27941088967659    4.12680619159380
C         1.65505147119195    1.22013028116494    4.01145189538540
H         1.82011026730803    0.29151993124304    3.46224672290222
H         0.66234962252382    1.59223680126363    3.74719570563453
C         7.28399088529440    7.03792590253376    6.52491262692962
C         7.24352286400064    5.66447993073097    6.34518619302702
H         7.92631349066809    5.20384767321910    5.64879687602831
C         5.48256258942700    6.84771874696064    8.13371030338995
C         5.46048641152122    5.45957718863026    7.93893208375534
C         6.35218480644447    4.86446102196939    7.04290657088924
C         6.37749314852399    3.36497918400546    6.84788244332140
H         5.49350789665342    2.93617785180538    7.33517159091393
C         6.40073042219798    7.60929405455211    7.42722451132301
H         6.42483650925876    8.67783919640631    7.57138702296495
C         8.25678230879932    7.89624756462879    5.75809325008069
H         8.10853748154081    8.93593757833014    6.06823446821001
C         7.61655250873217    2.76829641275220    7.52035787116167
H         7.64411863916142    1.69018462824999    7.37458337968596
H         7.60545460224293    2.97171464255738    8.58871211858100
H         8.52226310711867    3.19835381253489    7.09958202153676
C         6.34165827732024    2.98871175158135    5.36473143256464
H         7.29482113424734    3.19686649490763    4.88629685353426
H         5.57150249881452    3.55517160676126    4.84521610990111
H         6.13686131907774    1.92533498431823    5.25073841595239
C         4.54989058200719    7.50388683915210    9.12705991601113
H         3.69787538608598    6.83389328435341    9.29194736114888
C         4.00529779604917    8.84323178922578    8.62791623596563
H         4.75889866766363    9.62329175154178    8.69447978690630
H         3.15383239381503    9.14714036460489    9.23425364619125
H         3.68710167173664    8.76691566396583    7.58987487366549
C         7.97397810658223    7.80783907372578    4.25775460950156
H         8.15607382085367    6.80194318241638    3.88598779277411
H         8.61410754974153    8.49795612544222    3.71246909942901
H         6.93623060943003    8.06582394368824    4.06209360297564
C         5.27058544018257    7.69415295282447   10.46507579724477
H         5.56878151141862    6.73454246260162   10.88134778130970
H         4.61570716515241    8.19096584921039   11.17796989005218
H         6.16145076637073    8.30310105956999   10.32841299276304
C         9.70257123557552    7.50404586291809    6.07171491812552
H         9.89038423592814    7.56268472679584    7.14230682481222
H        10.39111147044350    8.17463892718607    5.56222307932258
H         9.90998724839411    6.48854398800721    5.74235461413506

