58
CSD_code = HIYPIP | q = 0 | S = 0 | Stoichiometry = C28H21Br2NO4PRe | MND = 6
Re        4.40128585581046    9.11483393629024    5.51723655047341
O         4.95501361303694    8.63261891124600    7.00312673793152
Br        2.30176174395582   10.21544228439168    6.26137991036384
Br        5.49918462707564   11.28214599525747    5.36105782620416
P         6.28181054200559    8.16764387927511    4.22966970672256
C         7.59412624781721    7.49383913821981    5.28380805624525
C         8.33913810081012    6.38418152146254    4.89249715515067
H         8.11796821653493    5.88611503757431    3.95809755675565
C         9.36201047108517    5.92521703231865    5.70207615220162
H         9.93739549558251    5.06246544876352    5.40017046616640
C         9.65047992852234    6.57158705411478    6.89385414537686
H        10.45071288443150    6.20872610838253    7.52131881116841
C         8.91498331944347    7.68052198857085    7.28029061425505
H         9.14033872933956    8.18504678698678    8.20714392392380
C         7.88683643619309    8.14397115153998    6.47904763986704
H         7.30106279131688    9.00270661171832    6.78236506629587
C         5.65642539685836    6.76276900959643    3.27144389320233
C         5.33244726212490    5.59332266742615    3.95986866656568
H         5.57336980875975    5.51314018358540    5.01256821597127
C         4.70323474549503    4.55474169864371    3.30224707004603
H         4.45308319232697    3.65118751665294    3.83858465544246
C         4.38242877125438    4.67904435090209    1.95861059407251
H         3.87790000192750    3.87237017170634    1.44873846011439
C         4.70741771845268    5.83628751831727    1.27144761007888
H         4.45812804372940    5.93196640556467    0.22527104399938
C         5.34234288897496    6.88040834186503    1.92197638867185
H         5.58324813303871    7.78888203376724    1.38828278320435
C         7.12914083815571    9.26365701199079    3.06218415723926
C         6.37575711043841   10.09858805544481    2.23878575451574
H         5.29588301729632   10.10132727205965    2.28562483807765
C         7.01379061230014   10.94418511273013    1.35090318124441
H         6.42256859737755   11.58740478178613    0.71801817831843
C         8.39693826703320   10.97180961454033    1.28603181516031
H         8.89294467333435   11.63955057212717    0.59765532558158
C         9.14626125025019   10.15123404876974    2.11322949509204
H        10.22503320678609   10.17837933839796    2.07158377052160
C         8.51992458720292    9.29951346609919    3.00432745370574
H         9.10965847367065    8.67041104056807    3.65526297500120
O         3.65540525432187    9.08222083771822    3.67149217427473
O         3.43972322151444    9.80494529223910    0.99113847377812
O         1.57662052964439    9.07316556205783    0.01126773247838
H         1.81002005118749    9.75709820129209   -0.63529060289060
N         3.22681813689390    7.27363540510206    5.41524234342388
C         3.04491841319096    6.39456891107713    6.37418971089207
H         3.59693709368073    6.56267731282773    7.28899888513649
C         2.17657624226121    5.30962527699933    6.21497703974685
H         2.05348253409315    4.61569456555767    7.03093691848045
C         1.49409783035184    5.14695855618573    5.03488705126948
H         0.81657188798553    4.31866108556896    4.89156742262096
C         1.67170310559973    6.08261436225494    3.99578889566103
C         1.03215324434150    6.05104175010708    2.74003438116090
H         0.33631564548386    5.25508643594207    2.52690514689661
C         1.28977367733629    7.02267373942719    1.81365431067949
H         0.79789760838929    6.99816646930892    0.85371638960225
C         2.19227656783489    8.07699515602877    2.04813165856032
C         2.83687819210429    8.16562762709938    3.28860361243977
C         2.56203059539428    7.14385654618318    4.25723702581326
C         2.48196456857570    9.07024380860817    1.00543478526277

