55
CSD_code = HIYWUJ | q = 0 | S = 0 | Stoichiometry = C24H28Cl2Ti | MND = 12
Ti        4.43034149317462    0.55143235597313    3.07577525977627
Cl        5.04052796640461   -0.97714005698437    1.54728497224831
Cl        4.44514296501713   -1.06150102795461    4.60369448742981
C         6.76232834592148    0.74125743003261    3.37986585300136
H         7.43184745858527   -0.11007364887168    3.37768159549486
C         6.42803196749787    1.53580908146259    2.26001974592706
H         6.80585764554655    1.40026411386782    1.25528722797715
C         5.61650554729610    2.59316692058062    2.70411513797701
H         5.29902930610247    3.43947830143989    2.10980467996930
C         5.44078688347462    2.45366561142498    4.10065124926783
H         4.98940453072944    3.18537326733726    4.75609399700256
C         6.16261418099092    1.31881780093301    4.51846242014394
H         6.31391511128500    1.00057359934613    5.54234572236599
C         2.22166369021790    0.97535495940428    3.81966853380716
C         2.16136203470329   -0.07993046202615    2.86833096378839
H         1.79237442955818   -1.08230804434793    3.04262271465310
C         2.54943853085132    0.42769644109257    1.61210604389905
H         2.51459007496517   -0.11200108497743    0.67480879437200
C         2.90009353045720    1.78091928889104    1.77472040490503
H         3.13268854923601    2.46922950990473    0.97220445228967
C         2.67711338447792    2.12342841383289    3.12922027824779
H         2.68510427974272    3.12916971761703    3.52696286857957
C         1.63797524204415    1.01033170042224    5.22119386735334
C         2.70884027103137    1.50475782150462    6.20173963192557
H         3.57841427572916    0.84876350640946    6.13869131483438
H         2.33940138440912    1.48399359788671    7.22277021119016
H         3.00818517702662    2.52415901287038    5.96507427836574
C         0.42683794748171    1.93688890389343    5.15301855444460
C         0.17497271589717    2.93117676309483    6.08914815575791
H         0.85898993882191    3.10552284731768    6.90448676528719
C        -0.96377061489837    3.71598552373402    6.00133522834361
H        -1.14037178313504    4.48166975508431    6.74301571079759
C        -1.87174130450671    3.52182822910512    4.97698485447244
H        -2.75984819464702    4.13262243084344    4.91209200758776
C        -1.63010547753494    2.53593289172568    4.03484948390641
H        -2.33045495646952    2.37378643505276    3.22852669438897
C        -0.49384922900093    1.75466521369255    4.12350440463355
H        -0.31555674238629    0.99247021005785    3.37872887730033
C         1.14456601309362   -0.39319668908298    5.63558125282409
H         0.40537163224931   -0.72980770141457    4.90685149459181
H         1.98826078511199   -1.08533321039013    5.61720675816197
C         0.48217903115646   -0.43705228345924    7.02019998370238
H         1.24085404701164   -0.35765812749116    7.79933801321833
H        -0.20095305731231    0.40840453675745    7.12278792098752
C        -0.25730950222722   -1.73014249420320    7.20023368432410
H         0.31526560212490   -2.52481836977564    7.66018205990610
C        -1.50192382340450   -1.98677696456203    6.81593692279637
C        -2.40646989494522   -1.00287046960060    6.13420762840074
H        -1.95998755597686   -0.01741708266082    6.04613218857133
H        -3.34364996216704   -0.91513398983340    6.68368099290915
H        -2.64724370668611   -1.35862641079617    5.13189705447262
C        -2.12497377677946   -3.33484161564441    7.03654243735627
H        -1.43019194778741   -4.01648810541615    7.52001718048271
H        -2.43403443244874   -3.76854897100415    6.08558584674821
H        -3.01384000688947   -3.24242938187651    7.66053113679707

