113
CSD_code = HIYWIY | q = 0 | S = 0 | Stoichiometry = C54H50N4NiS4 | MND = 4
Ni       10.47734355734854   18.18896876001388   15.66578634098430
S         9.32149794810830   19.45358311980669   14.28497311575879
C         8.57987937662853   18.10213730288488   13.52734843231440
S         7.24472833549289   18.41251425249393   12.45006849201816
C         6.67910505712632   16.71270488421876   12.06550441440597
C         7.31059809467180   16.06505833149594   10.87174358389022
C         8.67263752584040   16.15677149137845   10.61541043768994
C         9.23505884528644   15.47931878323659    9.54882592368609
C         8.44365709562836   14.70723733571149    8.71705385917150
C         7.08273422953673   14.62305919520505    8.95420812670064
C         6.52047367183329   15.29773232948102   10.02288291861709
N         8.99774169178058   16.88554485283270   13.63980626936605
N        10.08462864307876   16.70343041277155   14.41711878364081
C        10.76416754317110   15.59718169399878   14.19942249047863
C        10.25321670749342   14.60438067508494   13.28877880598039
C        10.99322674053287   13.67019386921170   12.66664523003370
C        10.50167719782027   12.74011755547714   11.67356184955997
C        11.41939167404488   11.96463895909010   10.95802006921395
C        11.00462313233921   11.10402390681762    9.96311881802903
C         9.65682844705952   10.97640290589132    9.64778637853822
C         8.73771140253111   11.73165491915231   10.36933034571652
C         9.14615445950327   12.59705074757512   11.36075600698473
C         9.19933639995918   10.03646888122231    8.57636377936802
C        12.04473780061283   15.44409486802131   14.84936690574436
C        12.84688040384501   16.49733713969972   15.09614097643620
C        14.12350278024865   16.45833734708330   15.77756279786717
C        14.52564629168554   15.36977160279997   16.55940847449677
C        15.75131872107306   15.37164392467539   17.19118581123634
C        16.62351912228388   16.45136738353029   17.06985730675024
C        16.21751996162147   17.54253086760974   16.31184632563374
C        14.98959043141681   17.55052739288283   15.68076612116663
C        17.96191065216058   16.41815743147056   17.73756779389356
S        11.69243163931032   19.82418114379858   16.50159452471693
C        12.51791087319663   18.77328922607019   17.58230836994578
S        13.92526638935118   19.40241087787219   18.38176955589465
C        14.37056931345479   17.94699808166506   19.39588242629832
C        15.71944913505000   18.04616699380617   20.03762063280274
C        16.06105484762947   17.09745270128272   20.99716109917061
C        17.30440530947609   17.12465640331654   21.60053226877712
C        18.22301774672330   18.10280114269703   21.25535569453568
C        17.88827232907833   19.05072731916843   20.30480961702447
C        16.64420491399761   19.02140036572125   19.69760032766132
N        12.12354663502046   17.57066895521313   17.86328953383391
N        11.01487296094311   17.17760373476170   17.21886795357901
C        10.39711888578282   16.09933735193988   17.66697910505058
C        11.04136268579682   15.24550792679109   18.62602209580088
C        10.46550791394164   14.22358446138287   19.28594063158324
C        11.12853683970616   13.34811290378649   20.22657793627934
C        10.37716634656057   12.37208137702525   20.89076856315841
C        10.96055159727519   11.51975022698288   21.80382745725942
C        12.31908532728938   11.60283366545543   22.09097482774289
C        12.95246134175956   10.66263224510847   23.06816715311160
C        13.07284168717838   12.56692629365498   21.42983208106622
C        12.49493420777434   13.42343266643316   20.51656786433846
C         9.07911146540641   15.84406388087076   17.14108673985579
C         8.28836420400015   16.85560220374889   16.71850018721701
C         6.99040885393365   16.74453281492967   16.09115544196305
C         6.25144113348671   17.90870712136768   15.85329524532555
C         5.02830607981821   17.85724261957694   15.21998633764344
C         4.49260100857669   16.64360203814273   14.80162602180352
C         5.22258572361247   15.48271393078541   15.03703313190009
C         6.44995713777938   15.52719755592932   15.66585802550315
C         3.16009639254110   16.59318722844704   14.12168392747982
H         6.87941146970419   16.13708971943527   12.97034913413568
H         5.60173009752902   16.80553503766827   11.92974253778323
H         9.29799139710522   16.75652267833421   11.25693358762576
H        10.29736553033654   15.55338689106755    9.36991984050563
H         8.88512191030386   14.17527383752746    7.88758603721767
H         6.45453136615161   14.03120032956645    8.30430113834335
H         5.45728568977386   15.22441939159947   10.20528935627160
H         9.20451446296126   14.71403618783945   13.05620240449448
H        12.05809185728951   13.62247129887647   12.85981303032227
H        12.47339037797901   12.05343607532272   11.18195563604299
H        11.73607318692138   10.52364835765104    9.41844213598607
H         7.68488793136513   11.64343121870725   10.14203133969734
H         8.40369069544931   13.17004521722782   11.89352324309237
H         8.33976558955648   10.44307217393017    8.04785802943844
H         9.99584348153279    9.84174998336879    7.86213670239496
H         8.90084959604777    9.08466725202709    9.01779913008037
H        12.35054632938167   14.43674593699734   15.09163121175825
H        12.54986787141883   17.48140303235351   14.70328052647145
H        13.86305401123589   14.52618260790766   16.68489861858513
H        16.04376053667228   14.52337714032659   17.79481426187722
H        16.86986180170457   18.39842369238623   16.21889721418233
H        14.69079381005946   18.41330441137725   15.10258938757319
H        18.46189910441177   17.37941159259273   17.65644198809818
H        17.85932844117185   16.16917032283542   18.79259625331324
H        18.59173578052892   15.65839881601604   17.27407530628027
H        13.58759707812141   17.83321490551329   20.14777813479301
H        14.33215376585214   17.09030992498236   18.72055193973045
H        15.34433563548051   16.33504475643906   21.26939328548266
H        17.55726079577913   16.38264324666288   22.34417499819169
H        19.19335596668417   18.12570716641110   21.72856710807295
H        18.59763096490491   19.81869161141196   20.03371183651440
H        16.38610090731390   19.76361920600533   18.95741266850798
H        12.07784100104730   15.49668047609893   18.79921363704179
H         9.41293114107725   14.02026265622240   19.13469245756011
H         9.31879685140656   12.29153010054294   20.68557013040531
H        10.35661880103669   10.77703404523944   22.30574107795740
H        13.88048752430076   11.07297016257541   23.45898084308423
H        12.27944053595617   10.45538631316838   23.89749356707247
H        13.18036989550777    9.71484759833520   22.57855040857617
H        14.13091234508887   12.64544092686897   21.63791489664434
H        13.11220485311473   14.15770869979540   20.02169610667545
H         8.74328349284433   14.81873790367767   17.10990762599134
H         8.61627618583444   17.89280302890769   16.91196248582245
H         6.65618064275997   18.86411780625573   16.15576843637869
H         4.48277805493806   18.77120314667033   15.03588346660695
H         4.82596621626281   14.53108764304151   14.71064389141358
H         7.00315285291203   14.61185703630231   15.81310963080052
H         3.05144173596286   15.68056923310138   13.53968037626958
H         2.36231764571162   16.61701500624731   14.86515145418088
H         3.02858791605569   17.45226561604234   13.46674972141625

