83
CSD_code = HIZBOH | q = 0 | S = 0 | Stoichiometry = C42H34FNO2P2Pd | MND = 4
Pd        1.85956332998810    2.80017104810897    2.84370062223121
P         2.29209135929549    0.74861905532864    3.64892927331442
P         1.14385309826012    4.66696205907199    1.81709726243804
F         2.04839159226861    1.96825268303751    0.96309071101345
O         2.29624848250899    4.25347439781526    9.49500220112769
O         0.15847469682432    4.12131534462531    9.30860331305271
N         1.28120377706981    4.11667871418550    8.83454712891676
C         1.68255019022565    3.44264937573396    4.70020943092093
C         0.41753094674636    3.52936500999118    5.29120005530167
C         0.27684477894948    3.76954578944682    6.64132200386027
C         1.41512811817442    3.93195452851448    7.42845719424623
C         2.68578688022710    3.88481487426358    6.85887712166125
C         2.80891009229475    3.64120691174937    5.50872525662379
C         2.61822395200244    0.45322391056081    5.41065566938846
C         3.91287415048617    0.35280783528401    5.90687262394939
C         4.12754969807740    0.29625180000564    7.27260689912444
C         3.05709231528231    0.35278860066389    8.14939517853918
C         1.76429447264393    0.45243159985649    7.65902137090506
C         1.54449045628488    0.50508408522455    6.29653339343186
C         0.84044047548040   -0.28745720555132    3.31445876879981
C         0.69805683173541   -1.58707133097970    3.79168905628918
C        -0.45275328594018   -2.29948015583609    3.50798222415414
C        -1.46736029100483   -1.71835523168085    2.76296006471535
C        -1.34025592981967   -0.41557782704412    2.30892995388340
C        -0.19088661617842    0.30202930162553    2.58663946262138
C         3.73772254682699    0.06208364873670    2.79372718816361
C         3.97695573940244   -1.28775668431654    2.57430870969950
C         5.12864659556892   -1.67767256567654    1.91277012062872
C         6.03849981335876   -0.72987472366417    1.47347705128988
C         5.79861711852483    0.61889050422506    1.68558783190464
C         4.64930462918607    1.01406047367202    2.34203567546837
C         2.11377837772447    4.93144303370635    0.30485081488277
C         3.46616785008859    4.61952837873000    0.40536738157330
C         4.30118006565779    4.79521009871951   -0.68056473566114
C         3.78613132690589    5.28473050989144   -1.87073228062606
C         2.43974843434121    5.59373207163442   -1.97361668890460
C         1.59907447194820    5.42037827528442   -0.88825939223545
C         1.07012724940994    6.36548371768913    2.47366861813707
C         0.36315540054740    7.36114123076069    1.80657525425289
C         0.36196149114650    8.65316921563116    2.29671013168239
C         1.06941706670597    8.96177939879243    3.44866663645862
C         1.78450805024381    7.97656127664518    4.10817300784013
C         1.78818416776508    6.68163447162706    3.62001766748863
C        -0.55194895360170    4.30431167564600    1.28383008580866
C        -1.65448562024118    4.82702748077661    1.95537147856400
C        -2.93033505454233    4.41669166733848    1.61129642134161
C        -3.11338298573215    3.47542790818267    0.61109989132028
C        -2.01680036079673    2.93428397215366   -0.04222962488692
C        -0.73813474506872    3.33887848043221    0.29441543086006
H        -0.47006929836103    3.38967064634721    4.67652095844349
H        -0.69448826421651    3.81907762286374    7.11066326544600
H         3.54978142851622    4.01867958488513    7.49229631233221
H         3.80294693022609    3.58321931464529    5.06938023902118
H         4.74891266016911    0.32035279564274    5.22069923085067
H         5.13467918533241    0.21728816345927    7.65474749910673
H         3.22883410549904    0.32558396196826    9.21467989170484
H         0.92865285868936    0.49939855171970    8.34166693836364
H         0.53843230318287    0.59473055575205    5.90712803200622
H         1.47625606510483   -2.02828552223594    4.39995871116831
H        -0.56251557347542   -3.31034741307601    3.87288634596361
H        -2.36289760656191   -2.28151400012092    2.54515810841139
H        -2.13735007744724    0.04304230008562    1.74206568547417
H        -0.07995451112997    1.33036972170630    2.23076067896024
H         3.26258375346638   -2.02807834513791    2.90326375952682
H         5.31484070044114   -2.72680788823179    1.73443521211150
H         6.93246819787055   -1.04294389007113    0.95441268509116
H         6.50361174978276    1.35609087883785    1.33018841790224
H         4.42472818959710    2.07329828496576    2.49773458787094
H         3.84153002211401    4.21372760143512    1.34607097093607
H         5.34902568320341    4.54329675702568   -0.60828072481307
H         4.43423544778396    5.41615200017183   -2.72477794349272
H         2.04112805479627    5.96526816196578   -2.90655949572010
H         0.54450621314877    5.64350905207479   -0.97560184794978
H        -0.19049302749273    7.11914733766031    0.91036492921860
H        -0.19231477442382    9.42350213084361    1.78070037410943
H         1.06348339246303    9.97218191582312    3.82962801660930
H         2.33954403803251    8.21590882074108    5.00292037406080
H         2.34360616086419    5.90419560170954    4.12924353150087
H        -1.50977354131551    5.55402625702247    2.74381558658255
H        -3.78416988573827    4.82867967857368    2.12943731237810
H        -4.11162785648733    3.15803003220641    0.34682554486953
H        -2.15836784061325    2.19013550597466   -0.81244903788033
H         0.12469886983863    2.90408513216290   -0.19243706573258

