29
CSD_code = HIZCIF | q = 0 | S = 0 | Stoichiometry = C11H11Cl2N3OPt | MND = 4
C         4.85494891552326   -0.10961109940388    2.27844205486766
C         4.80100300313828   -1.20851272620874    3.14414193752946
H         4.23700402164794   -1.13093001057403    4.06001699612288
C         5.46474812783522   -2.36712344803047    2.80179046623136
H         5.43583128433928   -3.22878283191352    3.45034097426564
C         6.17209109059945   -2.40683394885415    1.60183106640072
H         6.70377977293716   -3.29472277775710    1.30178869852413
C         6.18288505783796   -1.29073625408097    0.78652523100198
H         6.70617469682566   -1.28068431658812   -0.16080785986713
C         4.26213395928376    1.15725327495420    2.55983907362166
H         3.74426671620427    1.34416173357347    3.49353343514789
C         4.01745831933849    3.38172619810407    1.92925243689842
C         4.59244439428907    4.59251538464150    1.61053984931181
C         3.67928256344305    5.53313031472953    2.16989391081331
C         5.88875292921016    4.87586682697656    0.95383547974372
H         5.73105397792493    5.48537663799216    0.06684080376457
H         6.53914528762695    5.42350904346028    1.63634968172801
H         6.37622861042638    3.94666559183051    0.65184390146990
C         3.78072774463428    7.00920002810763    2.11420363892090
H         4.71376974080002    7.33798392110443    2.56882403237035
H         3.77545989269237    7.33753899056944    1.07638068599867
H         2.94175246127754    7.45412953497931    2.63967942097832
N         5.54238756868783   -0.17033382889781    1.10720506700398
N         4.44441931816173    2.10818130185697    1.67936858096249
N         2.68521448428576    4.92063390548983    2.75538198614024
Cl        6.04169797329900    0.53530022329864   -1.89140279257219
Cl        4.42463158286428    3.13501743024149   -1.29370559497396
Pt        5.18894164739113    1.44030470101940   -0.04469982719973
O         2.88246485747230    3.58867619938239    2.64006666479443

