81
CSD_code = HIZJUY | q = 0 | S = 0 | Stoichiometry = C32H36N6O6Pd | MND = 4
Pd        1.86325065936001    3.31336006306200    6.65739519599714
O         2.94834713406890    4.75768586745859    7.61436811303468
O         3.31376793320875    8.92959847883990    9.26721523193541
O         1.50116911283806    8.52282209279786    5.13744787154616
N         1.92750902190178    4.47904503245802    5.03274003949275
N         2.35679836853774    8.72170507118826    7.23117446962132
N         3.16041417341608    6.84597437887694    8.37941620490015
C         1.96175267098277    3.77740133686263    3.82183587615354
C         2.84746894010931    2.69658564386617    3.75546390252925
H         3.45990599506445    2.46234706004162    4.63491713677179
C         2.95847238142642    1.96184078431564    2.59210589216558
H         3.65043464218167    1.13280815484214    2.54837821274062
C         2.18996045724901    2.27129159977257    1.47262280155110
C         1.30408944976208    3.34073593967839    1.55514838588735
H         0.68859620951563    3.59362984984388    0.70548047724408
C         1.19070783742886    4.09538832407975    2.70755154796958
H         0.48850562778591    4.91435453347218    2.75493031710965
C         2.31304825031134    1.45151608864592    0.21265938672888
H         3.12828802325975    0.73330507249251    0.35184838185724
C         2.65909275315179    2.33449624304845   -0.98813505106495
H         3.55328223133067    2.91944017651204   -0.78445655023966
H         1.84587500032252    3.01779371993117   -1.21790145138470
H         2.84225838104457    1.71692550286443   -1.86430708586203
C         1.02542156195356    0.66432309729366   -0.04488259371912
H         0.82593852156752   -0.02014320158195    0.77614319227776
H         1.11956132614197    0.08483717885295   -0.96018165090612
H         0.17650225610144    1.33566084292445   -0.14838343111871
C         1.89723181839311    5.77261566744681    5.08332467522642
H         1.74777207800027    6.35370065077735    4.17150660396332
C         2.15229553755518    6.54529226369440    6.23989368554975
C         1.96807024670051    7.97333901125906    6.11800582234891
C         2.96466993939528    8.22054983130249    8.35012499838943
C         2.72850404641356    5.98100857455228    7.40324654235567
C         3.86003687451429    6.28472182323343    9.52122680644357
H         3.19998528483195    5.61728306116438   10.07425340660765
H         4.17794713272549    7.11291969942934   10.15001191153388
H         4.72335059516212    5.71751459374587    9.17474597331914
C         2.16259916109129   10.16138341286601    7.20009403996444
H         1.72009490871754   10.40831794499926    6.23793804883598
H         3.12024398798575   10.66641140250079    7.32131930373972
H         1.50237190940535   10.46230396205700    8.01288431888552
O         0.77882660841925    1.86852382336111    5.70034508660478
O         0.41395966469929   -2.30378457402355    4.04838137243198
O         2.22582200667716   -1.89600708550512    8.17835841501255
N         1.79919449747335    2.14774374410508    8.28206235403190
N         1.37073535059282   -2.09537844471456    6.08445685098407
N         0.56707191006558   -0.21995421382070    4.93574422847933
C         1.76438847189891    2.84982751661879    9.49268761950937
C         0.87844142979728    3.93051045249637    9.55825492657625
H         0.26627305425041    4.16425128806740    8.67847321059137
C         0.76687852334370    4.66576020232186   10.72123302849365
H         0.07473586626353    5.49467358719325   10.76433945444736
C         1.53505657105404    4.35696469769107   11.84112510152731
C         2.42114912894547    3.28763832439117   11.75941056527060
H         3.03634486369352    3.03523050727659   12.60943759400626
C         2.53509036612031    2.53248033884954   10.60738692813521
H         3.23744647589649    1.71361086355315   10.56062885787530
C         1.41125493143989    5.17722050447700   13.10070191212501
H         0.59590721029243    5.89518164232333   12.96086626546226
C         1.06487567785518    4.29458947544238   14.30166455271395
H         0.17154059663981    3.70855446605344   14.09737098543918
H         1.87859817617954    3.61231993450023   14.53270504950220
H         0.88009512834273    4.91248055701283   15.17727091433513
C         2.69856520670304    5.96482323889392   13.35855148909559
H         2.89811276731154    6.64925718117626   12.53751513045875
H         2.60395803932607    6.54438398704023   14.27375535468857
H         3.54764824519549    5.29374609893820   13.46240573602371
C         1.82955058954623    0.85416990724130    8.23182819888287
H         1.97886476738284    0.27330760874341    9.14381350298691
C         1.57486171939949    0.08125358838867    7.07533409965330
C         1.75919406239139   -1.34675298321164    7.19754238271168
C         0.76293040669566   -1.59450777532061    4.96534228356814
C         0.99881284693649    0.64526933087974    5.91176403081682
C        -0.13258832556473    0.34098230014788    3.79379954665072
H         0.52728518189498    1.00870051723602    3.24089903545063
H        -0.45003069791103   -0.48736839178193    3.16497859851438
H        -0.99621596653631    0.90782829652357    4.14009945198281
C         1.56500369971973   -3.53503936870416    6.11587941285729
H         2.00740331706106   -3.78174097093924    7.07814295238077
H         0.60740864129965   -4.04015933006823    5.99463360823889
H         2.22535654828578   -3.83608167431974    5.30323895108911

