67
CSD_code = HIZJOQ | q = 0 | S = 0 | Stoichiometry = C24H38Cl2P2Pd | MND = 4
Pd       10.22769426196580    2.26722870901070    9.88148282230874
Cl       11.88987174816772    3.82322254700273   10.02794076485975
P         8.99202274651289    3.94685534871010    8.97825253788298
C         9.78322454927217    4.85960931381795    7.61652548733666
C        10.24597195934143    4.16289863427130    6.48869639426068
C        10.03293274091362    2.67656648702223    6.37889341068751
H         9.00229675209691    2.49442118767656    6.05640648860321
H        10.14017824367973    2.22765925907345    7.38850331735297
C        10.97578137164875    1.95103184623564    5.42405375697995
H        10.77964448661398    2.22448500276313    4.38962637672977
H        10.82963184660754    0.87719596851609    5.51646919008164
H        12.01262999370945    2.18149441207420    5.65871923873511
C        10.87745614989133    4.88050202028831    5.48180674073850
H        11.24060549560491    4.36888096946462    4.60459107604986
C        11.05728868626407    6.24927870377641    5.57709035344973
H        11.55328139837303    6.78221144409138    4.77914411648824
C        10.60781407528677    6.92900922016680    6.69358886212656
H        10.75116770643525    7.99590611314386    6.77952929155423
C         9.97651875601623    6.23350094053232    7.70795928492705
H         9.64163580109945    6.77053904274451    8.58114385500840
C         7.30744803302771    3.55502468269662    8.32722977859073
H         7.39185707533174    2.66099921773508    7.70511029580363
H         6.70030363007873    3.27155162145962    9.19108336894794
C         6.66239271311635    4.69496002868984    7.55169569473175
H         6.54268211279275    5.57917370629107    8.17433786273682
H         5.67724113658847    4.39481743632750    7.19949295998638
H         7.26766205399498    4.96789942532152    6.68891790690798
C         8.65568805822318    5.17442664890417   10.30659154423835
H         9.62701509514361    5.58680462947918   10.59853075531728
H         8.00856750788478    5.98270062852696    9.95571871468009
C         8.02744279917011    4.44578122116858   11.49353972345179
H         6.98018548587106    4.21514302329909   11.30693995971326
H         8.08704233862143    5.05172306584519   12.39554390996292
H         8.55876056616775    3.49870102936730   11.66884206906387
Cl        8.56441790821428    0.71219174242654    9.73436747240968
P        11.46370903549945    0.58785163547619   10.78471007333084
C        10.67193723516755   -0.32466818691800   12.14622864321308
C        10.20933678099557    0.37205652309360   13.27411940942543
C        10.42239734124409    1.85839311273932   13.38393839809704
H        11.45304381905383    2.04057596641570   13.70637258487879
H        10.31508850195049    2.30734349569564   12.37435520956422
C         9.47953904127556    2.58393140134688   14.33875531851275
H         9.67567787175548    2.31046553100225   15.37317433371602
H         9.62567097009581    3.65777488032790   14.24635033234780
H         8.44269943621718    2.35342912974426   14.10407825668935
C         9.57800288535045   -0.34555989810098   14.28108295043581
H         9.21481404774875    0.16606416210863   15.15827607920245
C         9.39822495066334   -1.71434778966670   14.18582577439954
H         8.90213998074177   -2.24725273866592   14.98372556221419
C         9.84765531821438   -2.39407710543149   13.06931397099471
H         9.70424002703387   -3.46096061460769   12.98332731618811
C        10.47871875623425   -1.69853827952825   12.05483059587390
H        10.81369269061939   -2.23558848701716   11.18169372999526
C        13.14812945792064    0.98024952656530   11.43567514720872
H        13.06365436448508    1.87432204755890   12.05773666566505
H        13.75515415265429    1.26355102687495   10.57167689832341
C        13.79290516113973   -0.15985703966508   12.21114040853087
H        13.91256716763264   -1.04418624872943   11.58859974562833
H        14.77806502168976    0.14037264225763   12.56321170179590
H        13.18767244754434   -0.43262922455427   13.07404703487017
C        11.79957437145267   -0.63946446146264    9.45605564230617
H        10.82822594449319   -1.05185135917085    9.16415015461116
H        12.44667512491280   -1.44766916759184    9.80702654350823
C        12.42787627156884    0.08920308866226    8.26915950989746
H        13.47513993016384    0.31981350444063    8.45573603498283
H        12.36822327595168   -0.51674388068257    7.36716793707640
H        11.89659333479750    1.03630152955017    8.09389265380636

