75
CSD_code = HIZLOS | q = 0 | S = 0 | Stoichiometry = C32H38Cl2P2Pd | MND = 4
Pd        2.92749780749125    0.00039837888062    6.83442087273913
Cl        1.77897098779899    1.38130587971995    8.25242678654799
P         4.82976432164831    0.84763488723537    7.77175192613161
C         4.67900103111355    2.66060904552619    7.89773096954056
C         4.60788167228047    3.43701981291048    6.73550148557060
C         4.71596813041450    2.81806599297596    5.37552112549595
H         5.75609857673266    2.76857795725280    5.05151092112351
H         4.16460264146332    3.41025545631311    4.64696588814041
H         4.30904441753155    1.79561248871980    5.38593184617620
C         4.40544826187797    4.80578299678365    6.85691951504190
H         4.35670920623353    5.41028304630837    5.96187412829519
C         4.24345555351089    5.39992622963717    8.09485224160450
H         4.08199672105372    6.46550890751748    8.16513863276917
C         4.25606962446189    4.61952999825950    9.23819370180709
H         4.09099328155786    5.06778308285974   10.20655499984832
C         4.46388738267502    3.25781603733213    9.13764423966032
H         4.43874813860325    2.64558266285936   10.02732261360958
C         5.06792725635525    0.22144773257781    9.46830855458000
C         6.05924193346651    0.61437969794983   10.37562913530038
C         7.11169319785718    1.63358214243563   10.05811978734875
H         7.32706514115138    2.23991319292293   10.93629272841733
H         6.80779379229261    2.29123412559407    9.24941085242851
H         8.03542855736768    1.12958711253619    9.77015769650856
C         6.09005399618124    0.00068194151783   11.62332164662799
H         6.84704586288040    0.30590513761444   12.33249068445404
C         5.18685920304671   -0.98610129804348   11.97337061035930
H         5.23750286972942   -1.43875368761083   12.95265124179385
C         4.22791440037502   -1.39544968157449   11.06268589171168
H         3.52614488679726   -2.17430710169497   11.32057398255775
C         4.17854227213389   -0.79331771590074    9.82093235508226
H         3.43462386799951   -1.11183443400017    9.08571126368999
C         6.46563473294668    0.51384587564084    6.96472296477384
H         6.30128672376455    0.53882936919651    5.88508115220548
H         7.18500444351654    1.29225621301789    7.23067031364841
C         6.97693618842206   -0.87264449675694    7.33645825471898
H         7.19153454940027   -0.95291930177296    8.40002783395455
H         7.88578147502667   -1.09574681035301    6.78086736056205
H         6.22713388059300   -1.61827229204136    7.07557217242381
Cl        4.07412999831099   -1.38171089163785    5.41606348495397
P         1.02430379073575   -0.84755418250583    5.89728165869966
C         1.17537962664415   -2.66051945583880    5.77126683444652
C         1.24638234582878   -3.43697168032261    6.93348495552726
C         1.13828173249310   -2.81803677117089    8.29346697384114
H         0.09814624423064   -2.76845512040566    8.61744414841934
H         1.68957599016615   -3.41029027421277    9.02202419778858
H         1.54528018005674   -1.79560369007489    8.28307198879459
C         1.44867533518060   -4.80576260518396    6.81205562393495
H         1.49749893295480   -5.41025565188946    7.70710000069167
C         1.61053697786892   -5.39993030065273    5.57411933382989
H         1.77202817561285   -6.46551202526309    5.50383809206324
C         1.59798980976332   -4.61953026469475    4.43077949258220
H         1.76300111216844   -5.06781235291377    3.46241928177518
C         1.39039541521258   -3.25777283179458    4.53134036807726
H         1.41534217519375   -2.64558251247397    3.64162945785290
C         0.78631164830774   -0.22148439983233    4.20065598254958
C        -0.20498402513979   -0.61442437165676    3.29331719446391
C        -1.25745145181405   -1.63361389122818    3.61080227742707
H        -1.47270802332960   -2.23999417442091    2.73263785007886
H        -0.95359020723984   -2.29121076917199    4.41956297287811
H        -2.18124201335907   -1.12965596619364    3.89865781178903
C        -0.23586094126485   -0.00063886413796    2.04566246891688
H        -0.99287218946111   -0.30583385415805    1.33650337089076
C         0.66727818829820    0.98621275617042    1.69566175883816
H         0.61664316158178    1.43886768845971    0.71638437012114
C         1.62623284119187    1.39554272691764    2.60634924880817
H         2.32805901703721    2.17433166990422    2.34842648417618
C         1.67564885561489    0.79335491624559    3.84807634589228
H         2.41959474296642    1.11183161498587    4.58329219703578
C        -0.61161193914511   -0.51394152317298    6.70423316224690
H        -0.44725000779921   -0.53896063368687    7.78387305389120
H        -1.33093446656036   -1.29236926097963    6.43821277406649
C        -1.12280252623411    0.87257348425762    6.33246871303382
H        -1.33739368753615    0.95286013899849    5.26889536593048
H        -2.03164602004830    1.09568595497926    6.88804377569101
H        -0.37295578624233    1.61815878640944    6.59337855074697

