82
CSD_code = HIZQAI | q = 0 | S = 0 | Stoichiometry = C32H37B9P2PdS | MND = 7
C        -7.00260716395262   -4.25937852056490   -3.48656407827157
C        -6.78968108078755   -4.74481916745298   -4.88479812637947
Pd       -8.14425887028439   -2.50644030653047   -4.98865762506102
B        -6.58281401599744   -2.51218742829576   -3.43571114149714
B        -5.59315983821595   -3.87668536236451   -2.72515020273722
B        -5.67954630914994   -5.34793439410454   -3.73347077456527
B        -6.31008902795719   -3.39740092089727   -5.86261603079356
B        -5.84781760995050   -2.01615651108746   -4.90764779074311
B        -4.76170991860759   -2.58406204983310   -3.63493846906161
B        -4.30073249508560   -4.27887658662812   -3.91157270136518
B        -5.21753718817321   -4.79979215947489   -5.35802894026266
B        -4.55704186896170   -3.15129220478475   -5.27831356167191
C        -8.25787251479413   -4.59132073700347   -2.82412451073924
S        -9.62162443988430   -5.19322820400798   -3.75029695403203
C       -10.60468178170840   -5.25462341685952   -2.33947073587876
C        -9.93126739450163   -4.85386704998632   -1.23225803563120
C        -8.60263554890406   -4.46889986088126   -1.50609625469991
P        -9.65598745240922   -2.76532315358158   -6.72690533149780
C        -9.36099963212306   -5.25572812015121   -7.80244963423671
C        -9.70489551616622   -6.55020415858182   -8.13579893951294
C       -10.98384562299439   -7.01582404856722   -7.87047628282574
C       -11.91032319346553   -6.17935735550594   -7.27282579956285
C       -11.56886390889388   -4.87972170958332   -6.93985225658026
C       -10.29234844166080   -4.40128301781825   -7.21126605112882
C        -9.93764676510104   -2.31290074183069   -9.50924027389368
C        -9.57827758948751   -1.68861650300262  -10.69005505702086
C        -8.53009861892038   -0.78206568817637  -10.70829156798845
C        -7.83320222081063   -0.49984928102654   -9.54430816651546
C        -8.18633828846753   -1.12455482743937   -8.36246885979584
C        -9.24169760382841   -2.02999676348489   -8.34005989275849
C       -11.16710125132659   -1.76881380138845   -6.31142978630198
C       -11.52724260380767   -1.93866744084013   -4.84007877056574
P       -10.03026437266075   -1.59285457814346   -3.78909453121816
C       -10.88207573369019    1.09303038074139   -3.52779557535993
C       -10.77148862954331    2.44900595219581   -3.77562544726136
C        -9.71328372171169    2.93648820712477   -4.52662160857612
C        -8.75705030165035    2.06687511197037   -5.02508075138656
C        -8.86142037595458    0.71033072970189   -4.77480087993616
C        -9.92726426214298    0.21565245150770   -4.03080903616806
C        -9.89487729811255   -1.15147648487123   -1.09350025678834
C       -10.28007753118308   -1.22362340961055    0.23017520019162
C       -11.48778663441548   -1.81477809188570    0.56752138560943
C       -12.30218524849072   -2.33177281764531   -0.42532474945123
C       -11.91708168607898   -2.26337607305325   -1.75273657838340
C       -10.71362486259748   -1.66077590961870   -2.10050910296505
H        -7.54659337213388   -5.41579034149952   -5.29399722544442
H        -7.08345871203360   -1.90080374064886   -2.54542545152612
H        -5.56534274738872   -3.95635304021337   -1.55059313801862
H        -5.79964618158469   -6.45327245152295   -3.35834047164463
H        -6.53996983067004   -3.48043551201700   -7.02902105882045
H        -5.77851972468180   -0.89393884270421   -5.30497078623396
H        -4.06282008990548   -1.83172182448706   -3.05658119304976
H        -3.22687835095455   -4.66908929684493   -3.62772825501204
H        -4.93977380332537   -5.57461250242221   -6.20038927073692
H        -3.69207113110873   -2.85223470817478   -6.02082147308714
H       -11.61478362944071   -5.60480838872064   -2.41953499934277
H       -10.36778335394962   -4.82119719832431   -0.24943051466757
H        -7.92506033834960   -4.10709738286253   -0.75427580132759
H        -8.36252650086388   -4.88533805036942   -7.99714734829816
H        -8.97717656030805   -7.20111940727544   -8.59772010531745
H       -11.25556015494545   -8.02927668571475   -8.12567645065903
H       -12.90666905559763   -6.54105674443247   -7.06232276608086
H       -12.30661969717659   -4.24448811674913   -6.47266219851524
H       -10.75025761526101   -3.02624428708664   -9.49386134768914
H       -10.11644635980902   -1.90987035635847  -11.60040821642031
H        -8.25301642995755   -0.30018915309878  -11.63433678168720
H        -7.01106357263544    0.19982503981272   -9.56196870644312
H        -7.63610107549186   -0.93753799094738   -7.44397119346236
H       -10.90033187280497   -0.72282231335171   -6.50349626516956
H       -12.00152176363925   -2.03066740351364   -6.96907342931443
H       -11.82800957451461   -2.97256200542489   -4.64566436170810
H       -12.34607295375656   -1.26853675792406   -4.55924460550379
H       -11.70375749994640    0.71430092652226   -2.93485871544629
H       -11.51226584423925    3.12964078741699   -3.38135868264297
H        -9.63252542246035    3.99664595855436   -4.71667961983796
H        -7.92773722149302    2.44727093604792   -5.60272293304873
H        -8.10316298484565    0.01332035370008   -5.13984567630071
H        -8.95142045287801   -0.69684249536478   -1.36676089936342
H        -9.63897399957983   -0.82425264865210    1.00228238080481
H       -11.79096146111862   -1.87640053758968    1.60234363918258
H       -13.24241692697775   -2.79669162605238   -0.16487537979125
H       -12.56027729967529   -2.68300616838979   -2.51153616310812

