92
CSD_code = HIZSIT | q = 0 | S = 0 | Stoichiometry = C35H48O8Ru | MND = 7
Ru        1.66800606262117   10.78335716281464   10.53414748570237
O        -0.60730747335762   12.43821563888375   11.70174286295962
O         0.56116016802144   10.48260056698461    7.73832017453403
O         0.99691579891045    7.95199179129326   11.33155254321905
O         2.83818066499877   13.56585438564589   12.32275057827478
O         2.75262667680807    8.52153863594260    8.48503461696754
O         4.17030448743014    6.89824165568657    9.09165713703002
O         7.20471530013879    8.52312015110946    9.82007165008143
O         6.32947385370858    8.30584497968025    7.76734219827173
C         0.25597087761802   11.83308682524635   11.26463502036507
C         0.98475151528034   10.58377982841983    8.79159672577737
C         1.19632372442909    9.03405964056485   11.01139430083774
C         3.03291723722531   12.54750873442895   11.67784541380747
C         3.13899563405002   12.43132063728089   10.18861932766980
C         3.76144462741851   11.16974295642595    9.91009097634108
C         3.78332854881808   10.39905452707498   11.10769250213275
C         3.16171564287149   11.14102854582939   12.16219077270899
C         4.65499586969455   10.54593372103632    8.87375854374617
H         5.60361280610822   11.09070157421919    8.83362894974333
H         4.22852884516381   10.50298927788626    7.87153883607937
C         4.89192425690962    9.11724103201878    9.43657929340715
C         4.70757076439507    9.22692986954863   10.97231897207717
H         4.34667839859047    8.29504759666205   11.40998286317405
H         5.67828060886446    9.45864221970920   11.42392059238841
C         3.16856369741802   13.68140347297163    9.34558269371008
H         2.82226962969706   14.49754564856799    9.99157105427355
C         4.58613683332706   14.02233955606531    8.83880759571966
H         4.87517689199963   13.24209540515823    8.12348178665805
C         4.51527905137127   15.34458101573779    8.07128709416334
H         4.15853802227032   16.13453932250321    8.73329261844519
H         5.50894822919958   15.62067594901161    7.71603538327094
C         3.56806994444706   15.23371282427651    6.88095865536620
H         3.54514545555546   16.18182314268930    6.33912576560340
H         3.93074816507890   14.46605029863462    6.19238034395433
C         2.15918772185993   14.87012823148255    7.34529011406571
H         1.79211244299835   15.66880774082681    7.99959203281472
C         2.21290221921725   13.57378636007491    8.15119917995076
H         1.20845650408324   13.33181787133316    8.51827142302082
H         2.53982372942823   12.75852661647088    7.49842749560554
C         5.64388540992690   14.02421703928505    9.96256827500458
H         5.53795637099208   13.08000401896004   10.51066902227343
C         5.46670609418422   15.15553586659213   10.97201758388194
H         6.23374947514360   15.07805553593685   11.73968156775190
H         4.49790517640237   15.09121212883970   11.45903027418220
H         5.56559004990406   16.12757075044187   10.49634135807806
C         7.06037594450604   14.05812705440484    9.38558438049556
H         7.19568199142990   13.28709284687344    8.62853720505995
H         7.78826684979696   13.88981449462530   10.17621894691533
H         7.27525344857395   15.02307426597321    8.93357968888381
C         1.20511604635060   14.73112702321294    6.16270035004134
H         1.15808643769401   15.65978638578941    5.59839501448312
H         0.20273673372668   14.48629677358692    6.50659338600483
H         1.53976563167514   13.94026350157857    5.49429770014766
C         3.22123421126859   10.78979913399693   13.62954591091064
H         3.51259775541832    9.73529860031924   13.72951644206550
C         4.24298960821313   11.67724173324932   14.37513773793346
H         3.88807883255165   12.70799879717271   14.27892626874205
C         4.23563023316179   11.30349761268750   15.85782016781518
H         4.52334125091931   10.25703737662192   15.97804748855155
H         4.96055664386104   11.91755338115848   16.39383711606094
C         2.85276712671006   11.50681035609039   16.46651974259220
H         2.87507020762680   11.25448154334730   17.52930730622371
H         2.56432203439119   12.55610893512935   16.37575590215781
C         1.82143321338484   10.63920173476262   15.74867691561256
H         2.10362337898239    9.58623354188551   15.87128958567559
C         1.83458379500677   10.97825438110392   14.26062151513627
H         1.53442284315187   12.02016389782606   14.12663052792446
H         1.11095514630467   10.34523436682279   13.73108554880944
C         5.65074547237609   11.62478697269957   13.74737102315312
H         5.52290940914462   11.68727385938285   12.66035875160000
C         6.47691575407175   12.84039054834034   14.16636680778112
H         6.66758708099708   12.83471876869148   15.23677698483458
H         5.95184674890972   13.75794559631805   13.91300013318081
H         7.43630045656044   12.83745106167019   13.65271805267292
C         6.41650793807596   10.34118651184318   14.06737034224554
H         7.30589429232023   10.27199324513808   13.44374262731209
H         5.80690768535048    9.45876162434089   13.88840571608345
H         6.73618185231030   10.33375412523513   15.10638207093050
C         0.42628995052624   10.84125246311599   16.33217409580456
H         0.11576706550937   11.87742971395342   16.21751448296064
H         0.41516027262902   10.59427111130580   17.39154418407819
H        -0.29802967484762   10.20861855807330   15.82347853886231
C         3.81743731862498    8.16742158055596    8.92324873056008
C         3.19580035670540    5.92355286545883    8.73044720673856
H         2.28911933007948    6.06184372980344    9.32242487803109
H         3.64542982226923    4.95618585162414    8.93638904668437
H         2.94464903141860    6.01612126221281    7.67271429941917
C         6.27724895551390    8.60743383415300    9.06350277665355
C         7.57917169179472    7.82409495735991    7.28437789581899
H         8.35725342571991    8.57471746884965    7.43476747078335
H         7.43824185616599    7.62444330353352    6.22565876083640
H         7.86070853185726    6.91289249787254    7.81471661963979

