63
CSD_code = HIZSIS | q = 0 | S = 0 | Stoichiometry = C23H37NPTa | MND = 9
Ta       -1.20326490260867    3.15698375874347    2.81862043897891
P         0.06469002192326    2.32569362214151    4.98153637421534
N        -0.64577344112816    4.82703085695122    3.23487062197813
C        -1.82667528407191    2.22099481177817    0.45796835302464
C        -1.92948321717285    0.95872063172090    1.09047586773044
C        -0.67803113237327    0.62576326137465    1.63088063204997
C         0.23466201088598    1.67361682867087    1.33710413775255
C        -0.47753294182961    2.67149453460695    0.59183797416918
C        -2.84470293545627    2.86497538311509   -0.43372128381327
C        -3.13608815808708    0.07185594447162    1.13622327614679
C        -0.36332775147514   -0.66685370104873    2.31979427110562
C         1.73186080247183    1.57364576421054    1.40028835181760
C         0.15787657810629    3.73428816299234   -0.26060698702930
C        -0.22252211783137    6.02674712012210    3.63898647485262
C        -1.09603718843452    6.90435905154373    4.33355029943876
C        -0.63344647780018    8.12280366575725    4.78911137990698
C         0.67917805096762    8.51569943900899    4.58084258172202
C         1.53994831896314    7.67227224166480    3.90042025061026
C         1.11603836710766    6.44370041699704    3.42823695525165
C        -2.51562125824034    6.48130693727052    4.54389316254654
C         2.06156855340688    5.55300713795957    2.67861087682472
C        -3.43505984028535    3.20405718656852    3.01935055803405
C        -2.91475958166475    2.48940518522881    4.15267496221084
C        -0.15660970606648    3.58426442135692    6.29396455783405
C         1.90173773805792    2.19244174942829    5.00670233883252
C        -0.40034360968101    0.79264677510893    5.88885797143851
H        -2.72858108460018    3.94789564025740   -0.43389094275442
H        -3.86240580383917    2.63394323567100   -0.12156888809739
H        -2.72294575818848    2.51078143722176   -1.46093406428691
H        -3.97928589860750    0.52517705525281    0.61910790684609
H        -3.44197969405676   -0.14375299769161    2.16343867931168
H        -2.91905194011033   -0.88349733484607    0.65401622877519
H         0.53574588786300   -0.58521624950839    2.93077104624481
H        -0.19633765784308   -1.45943017967170    1.58570109512598
H        -1.18928305118327   -0.98212596390863    2.95920177875047
H         2.04677274916194    0.80035300161608    2.09894255715210
H         2.19198275786015    2.51581270714327    1.69779235422855
H         2.12594388287106    1.30709422493599    0.41615278387478
H         1.13848511394383    4.00664238431756    0.12370330609688
H        -0.45617588999760    4.63379842819025   -0.29496824065022
H         0.28202793713146    3.36814713368526   -1.28319980155841
H        -1.31107206936978    8.78072121688213    5.31584307784919
H         1.02619147310115    9.47172404073342    4.94350910857229
H         2.56473142702697    7.97374906378770    3.73076699907186
H        -2.54496009218490    5.47645875679871    4.96440950328719
H        -3.03125571041988    6.44605878573397    3.58441507011295
H        -3.03554229426998    7.17322260596314    5.20187272241923
H         3.05845623824470    5.58861654398907    3.11548962156953
H         2.13681173189674    5.87871364246263    1.64062816960535
H         1.68475703139336    4.53122582918076    2.69227553163197
H        -3.96858571594726    2.62348947725490    2.27502432149400
H        -3.92945694281084    4.14752417653375    3.22521482725066
H        -3.04894764146760    1.40835175083317    4.14808295197967
H        -3.10681971628307    2.91286785992083    5.13600856125824
H         0.42192129783266    3.32250583507471    7.17929066146441
H        -1.21076733796069    3.65645377735058    6.54811022928460
H         0.16920575168414    4.54461700067162    5.89956959459773
H         2.22756010427118    1.37969692744100    4.36281148412475
H         2.25380199655373    2.01396951577311    6.02209319158297
H         2.31619496751999    3.12673844913785    4.63528560979348
H        -0.18674041362040   -0.07863268132413    5.27451009317566
H        -1.46522073450503    0.81900735873861    6.10671457844079
H         0.16084420302170    0.72717635763340    6.82013389343600

