88
CSD_code = HIZVIW | q = 0 | S = 0 | Stoichiometry = C38H42N3P2RhS2 | MND = 6
C         2.02950081726265    9.09058989649645    3.02972991867783
C         0.49718400637778    9.71355458232721    1.34812659910966
H        -0.25139664912620    9.59335898925169    2.14339549654129
H         0.50339352773777   10.76326009194220    1.03310305419184
C         0.16306610993492    8.82068142537730    0.15723238573885
H        -0.80268069937765    9.09636379904549   -0.25867206798692
H         0.12697117436378    7.78125288520998    0.47490871949828
H         0.92752333749265    8.92366393529366   -0.60923147933762
C         3.62360912975026    5.43642303956835    3.98115110460488
C         3.22086962216624    3.16956607263720    3.46837036456880
H         2.21407983994018    3.52853572090644    3.21220848072268
H         3.67982345519580    2.74521218889570    2.56834475166380
C         3.14848453904314    2.09721352141154    4.55220118434572
H         4.14828209708917    1.74871068953254    4.79989829566493
H         2.55542302237718    1.25608932643554    4.20269959440817
H         2.68899473443534    2.50273583397616    5.45138950575839
C         4.28925236931502   10.62278299063355    3.55196467848920
C         4.71391158380597   11.07648719825389    4.79224621970916
H         4.80190135880822   10.37339732631516    5.60729193116019
C         5.01131712150193   12.41685077743261    4.96629668074256
H         5.34111370804225   12.77598579750780    5.93044687197288
C         4.88063457228969   13.29831046825467    3.90626978660836
H         5.11191501569054   14.34441832691692    4.04407159677322
C         4.44435250502077   12.84530140722578    2.66952569059981
H         4.33553947668115   13.53872997714138    1.84844883289243
C         4.14191820063581   11.50947184183913    2.49024793915189
H         3.78150334451980   11.13489882035514    1.54196597828984
C         4.62151035176854    8.35650239332761    1.79438288859386
C         4.01781523019257    7.44632390450008    0.93845462133772
H         3.01929764764800    7.09506346844847    1.15082716042704
C         4.69953897690446    7.01226735787174   -0.18447757154268
H         4.23249245611515    6.30588136808407   -0.85487260574215
C         5.97388021735900    7.48410307946461   -0.45217377188705
H         6.50220440985898    7.14350620505293   -1.33064307543219
C         6.57218645503240    8.39831942976460    0.40047933592107
H         7.56392207602987    8.77009045961048    0.18844790991050
C         5.89829616052580    8.83619207066365    1.52433594845170
H         6.35341708790072    9.55097241203629    2.19747756741731
C         6.34800708344809    6.46336934427465    3.60652050984536
C         7.38382626887072    7.32938251051996    3.94135571568556
H         7.24602430358750    8.02298099300904    4.76127861482908
C         8.56487339583188    7.30306179120487    3.22609088490587
H         9.37084657052650    7.97352336306710    3.48639934635687
C         8.71178655267345    6.41285009211207    2.17344877606718
H         9.63407302985496    6.39120064198242    1.61182308345724
C         7.68072906773401    5.55034933544149    1.84210995240115
H         7.79847694257143    4.85816475518083    1.02159921364166
C         6.49634384454551    5.56900875523202    2.55821285371783
H         5.69309419527848    4.89117967036440    2.31460471145012
C         5.42533981085642    6.21135633123414    6.26262601890065
C         5.78005095050827    4.89463865191609    6.53432006502845
H         5.64144867531497    4.14759420143734    5.76473054092645
C         6.27904983075148    4.57175476884866    7.78204472469894
H         6.54764302361834    3.55057743510321    8.00928494469138
C         6.43879118074463    5.56013754010493    8.74295584341244
H         6.83197760018024    5.30438010319041    9.71596755663697
C         6.09636730214880    6.87270396794211    8.46158071074516
H         6.22567125481695    7.63686524812617    9.21449803483888
C         5.58578038783004    7.20389287284085    7.21806915173888
H         5.30169263789217    8.21724244531810    6.97507728681672
C         1.61557881423187    8.20410282269724    7.47327508521026
C         0.29665745563663    7.89892151569558    7.15272139773467
C        -0.47976489210227    6.78878529117995    7.82316260846997
H        -0.10944856810850    6.65172759620557    8.83996558808792
H        -1.52959546857298    7.07931375205639    7.89484775896668
C        -0.38160627802773    5.47465007379169    7.03025170239933
H        -1.17323584271175    5.45739377466464    6.27658194393422
H        -0.54307031970474    4.61627405406717    7.69278157251234
C         0.93842468753006    5.30607585987983    6.31386347693821
C         2.19510929913871    5.54778436152550    6.86564265901075
C         2.41355626798554    5.93586743765574    8.31418275986100
H         1.64643812522426    5.45577448903280    8.92517033043063
H         3.37900621358020    5.54207383835578    8.64033239517756
C         2.39903718585234    7.46125897085611    8.53141172639166
H         3.42529711348420    7.82927443407535    8.52403385365627
H         1.97722687039225    7.69709207388852    9.51532007466583
N         4.32889263605188    8.15626254248910    4.66904410997174
N         1.81558174437789    9.39894255585475    1.81881852600074
N         4.06099007656464    4.24600016050272    3.91314590117991
P         3.80988417039084    8.90091252530231    3.31516183937645
P         4.84382041290327    6.62751558064338    4.61469548185628
Rh        1.60739620397969    7.19602959201339    5.59952359560310
S         1.05122232444010    9.13449534477750    4.43645576720962
S         2.13332283897666    6.15578189985162    3.50485852510827
H         1.95786172677086    9.22485046604537    7.29575664099740
H        -0.31489512672959    8.68249927189347    6.70853112571968
H         0.87964540820616    4.60105620337168    5.48253323236618
H         3.03392462046729    5.00639961418732    6.42776125843945

