39
CSD_code = HIZXET | q = 0 | S = 0 | Stoichiometry = C15H19Cl2NSiTi | MND = 8
Ti        8.00184881774863    1.11489667392769    7.02132345701305
Cl        8.98071375742215    0.06426314337158    8.64189221787961
Cl        7.36908620367198   -0.65439721564850    5.94755683839499
Si        9.00936238849889    3.61446945802522    5.82986122282497
N         9.34549282942538    1.91744586967639    6.02562248922456
C         7.41501456001992    3.30660399389522    6.82803700568142
C         6.36043700588423    2.52044115126593    6.28729527278849
C         5.75887161759699    1.78245740540118    7.32886413009588
C         6.45310344082259    2.07410903182455    8.52234024795771
C         7.47929340998567    2.99200985759583    8.21279805992771
C         8.71264342007215    4.19504553885654    4.03414162436462
C        10.22922184802846    4.81233555375719    6.68260640387445
C        10.38457062771018    1.10291223045584    5.56653538140143
C        11.54611727251957    0.93430422643599    6.34190580021220
C        12.54430951780693    0.08349735888687    5.89075611328150
C        12.41864873840046   -0.58975470415677    4.68924332914316
C        11.28914907856784   -0.40062790261582    3.91431498135067
C        10.26808257793228    0.44117815293613    4.33071087750446
C        11.73045755215044    1.68830017775548    7.62743058895400
C         9.07423094772285    0.65692503024006    3.44466790056989
H         5.99669130462739    2.57261061284199    5.26680172646160
H         4.86182797685069    1.18012361108313    7.24569930613943
H         6.18229490837616    1.73390057754185    9.51495380148846
H         8.13224738217239    3.46820220498905    8.93598249037100
H        13.43097614839383   -0.05079711838737    6.49361231423025
H        13.20035698169218   -1.25556900934000    4.35588518677941
H        11.19187317647762   -0.91380603275381    2.96834883743863
H         8.44381586926019    5.24565390499896    4.01394238455870
H         9.61553808451867    4.07665434740871    3.44388120064610
H         7.91986550665746    3.63898471638016    3.54407348858429
H        11.19632030058758    4.78509149899849    6.19127655339132
H        10.38059161186950    4.57160589614293    7.73008975250018
H         9.86224615762289    5.83149844530375    6.62474928462643
H        10.76660419404565    1.98103512099201    8.05041737576946
H        12.26284121802541    1.07407264238528    8.35051580026641
H        12.31962309458209    2.58828857573944    7.44670633385522
H         9.33134844858393    1.34617990969258    2.63922166495849
H         8.76444008363069   -0.28567748489918    2.99734934686766
H         8.23634194002105    1.07253254900212    4.00998920863167

