44
CSD_code = HIZYIY | q = 0 | S = 0 | Stoichiometry = C17H21CrNO4 | MND = 9
Cr        5.21141691812341    3.21366229553934    5.57603688967125
O         3.60248784473849    0.85377414753785    4.75073076584699
O         3.43568881657241    2.60121878000226    7.88062568529849
O         6.69825688531686    1.05119926872323    6.97850811800054
O         2.93084644763566    5.62772014454978    6.79285927250483
N         3.33839554051716    7.39191774431264    5.44263328855460
C         4.47974069135723    4.70020353082664    4.04486408540630
C         5.54908562312052    3.97373457546175    3.47537332456082
C         6.79715402470911    3.93894430373837    4.09496004018726
C         6.99508246738322    4.61723048319433    5.31405823447655
C         5.96860434573293    5.36765245908233    5.89346777874273
C         4.70436654501742    5.38567673040172    5.25109976536607
C         6.21093706120334    6.12506130758742    7.17175737409908
C         3.57899973683912    6.14067424006793    5.89870586235214
C         3.15173742198806    4.76557776994952    3.34582599086134
C         4.11488742709182    2.92419949912046    7.00760601078942
C         4.23215854624531    1.78237006733710    5.03411660630031
C         6.15928748661648    1.91039586063684    6.42160211017531
C         2.22952012679123    8.12896612714025    6.02500753469493
C         0.93249832618028    7.89956731195640    5.25506923705530
C         5.14245692497881    9.00708612308504    4.90704797973717
C         5.94295498895527    5.24993807847317    8.39883045104622
C         4.08270677259040    8.03747257694753    4.38305489432934
H         2.34504119287640    4.88978655997015    4.06529839232548
H         3.11603442454261    5.60213614784141    2.64322517746830
H         2.97341438853103    3.84880652754544    2.78674158249031
H         0.13038913919613    8.47865869204370    5.70372112010081
H         1.03574391609199    8.19922079913609    4.21385905216255
H         0.66278328192938    6.84745067927967    5.29293845158052
H         5.91737723764062    8.47320753645738    5.45051013040718
H         5.60380683198752    9.52904051660120    4.07271298950533
H         4.69986893013616    9.74489000503849    5.57161226700028
H         4.89256379300227    4.97326331015177    8.43213900522279
H         6.53947779561703    4.34052294688581    8.36043719095433
H         6.18982587134322    5.79498215872886    9.30700353310393
H         7.24943099249954    6.47117251527529    7.19548324810526
H         5.55872966403315    7.00038275001030    7.22465275390735
H         2.10748081163343    7.77542719249931    7.05137175109371
H         2.48420216926191    9.19091151765986    6.03894543688919
H         4.57003450463150    7.27978315409306    3.76647049546563
H         3.37224346680431    8.58201593362892    3.75353471575686
H         5.41005007494033    3.49820390635975    2.51082455800718
H         7.62788532358841    3.43223335954512    3.62007819250796
H         7.98384522000915    4.63166036557739    5.75969865588763

