102
CSD_code = HIZZAS | q = 0 | S = 0 | Stoichiometry = C36H60N4OZr | MND = 5
Zr        6.98125177090127    4.09060470757809    7.24635369248822
O         7.88271689874141    6.35078229454172    6.56649463007447
N         6.23748251592773    4.29752396416604    5.33179773775172
N         5.28615183662951    2.98137981780948    7.45443602227032
N         8.50234916417941    2.87852334872747    7.84483312071591
N         7.29024878373750    4.93771409531691    9.11415684338053
C         4.85963498161989    4.36219440380421    5.53942532046030
C         4.34296001027607    3.64024881109183    6.68410950855699
C         2.96728063312014    3.67651923783664    6.91535545758370
C         2.10787869075597    4.40413521970394    6.10260598289955
C         2.60380561699045    5.11507427147922    5.03042181935902
C         3.96469602501461    5.08787852815393    4.75497848218650
C         6.72745304151310    4.32934797629828    3.97107921351606
C         6.67479879523868    2.94649324908757    3.25526883725438
C         7.37140202375725    1.90574750114418    4.13601537335358
C         7.39084742710281    3.05957446637029    1.90673024393467
C         5.22404839947233    2.52602633522519    3.01794900041333
C         4.89226610896430    1.98228622951545    8.42723187038843
C         4.95931844177282    0.53068674705925    7.87820678218772
C         6.42533563783631    0.16894853955315    7.63634848234362
C         4.36104729593715   -0.41767168234043    8.91933945071835
C         4.17674008698199    0.42455177073405    6.56918078507517
C         8.26546288340803    2.73384332505625    9.20961916934040
C         7.56879401822334    3.81384892361595    9.87787985475465
C         7.28474894744213    3.65676547329829   11.23763667655568
C         7.66853852947338    2.52858274119050   11.94901786434437
C         8.34654429693707    1.51087517083471   11.31463901150238
C         8.63197606754803    1.61758288517322    9.95978205132782
C         9.61873649428002    2.18283274316906    7.24101270451358
C        10.70821678575642    3.17614346635792    6.75152032268463
C        11.92862807215802    2.39980532972582    6.25263838893091
C        11.10363019023598    4.07511764794644    7.92492462599358
C        10.12848046822446    4.01909367612318    5.61240491920749
C         6.78026727322299    6.12818884853933    9.76374926419807
C         5.26453800261716    6.40126680558852    9.55147240256144
C         4.85812028154734    7.63484392033201   10.36271567877990
C         5.01912702324016    6.65967616912719    8.06123007843604
C         4.44044862003495    5.19367640971457    9.99364079574008
C         7.42481068308522    7.19154223571378    5.50722644676166
C         7.61672293918422    8.64312438916426    5.98208873451623
C         8.58556805441246    8.51520649350129    7.16877630808077
C         9.00038418092362    7.04031876136616    7.12181864764669
H         2.53985755203795    3.12663505876996    7.74189539896387
H         1.04854338276990    4.40630429358825    6.31726842558478
H         1.94199008180782    5.68804301469574    4.39657134636119
H         4.32681971937683    5.64529182595726    3.90041622792868
H         7.78065456104906    4.64837534543882    3.98767070474960
H         6.18249001781473    5.04758145286069    3.33840742026958
H         7.05902359052185    2.05673400362085    5.17868644927384
H         7.10745782275125    0.89742496514427    3.82369488954512
H         8.45308336918784    2.01018000331647    4.06933672875572
H         7.38657060688778    2.09909603327888    1.39571890179218
H         6.89338089143052    3.78683401367915    1.26812930058301
H         8.42534821549585    3.37280486266656    2.03853203191859
H         4.69237630963808    2.44115773386860    3.96194094496195
H         5.18635483954954    1.56474877306467    2.50811444643960
H         4.70535450594844    3.25955582992869    2.40457117383318
H         5.58159642601561    2.03806618836039    9.28602464186553
H         3.87482255163200    2.15170567396588    8.80702232601310
H         6.94073439230953    0.04509326380564    8.58633806355650
H         6.91235404130373    0.97862263626977    7.08545366585258
H         6.50906694302475   -0.75694192398458    7.07022549755958
H         4.46200236178629   -1.45036003734588    8.59197881708573
H         3.30371364709110   -0.20979138449034    9.07072415280996
H         4.87330605165550   -0.30684355291675    9.87287905338055
H         4.21490470548002   -0.59306399800011    6.18493827287154
H         3.13461654427758    0.69767823820547    6.71793045997817
H         4.60260402255109    1.09468130029703    5.82589086022810
H         6.75473427887739    4.42742938746883   11.77819349385350
H         7.42842654148005    2.45704683014323   13.00040538911893
H         8.64928627325366    0.62679267173125   11.85723222256798
H         9.14586988225924    0.79219529407626    9.48543939100757
H        10.10255147608195    1.50643742420028    7.95485805609577
H         9.28865102208663    1.57471675391905    6.38171151888526
H        11.64993913612217    1.71530167547602    5.45386630576940
H        12.37061002360329    1.81888145160403    7.05867954517906
H        12.68482512518342    3.08323186022173    5.87125392085123
H        10.21003635156830    4.53956102654070    8.34519816779159
H        11.57548559194155    3.48532432911049    8.70780439694372
H        11.80168281927844    4.84862090404584    7.60954376921330
H         9.12382073979507    4.36608761805170    5.90196247346153
H        10.05021651143674    3.41929327001996    4.70642984197311
H        10.77362749516067    4.86987683470253    5.39366011674563
H         6.98517126424458    6.11599173526721   10.84211325436866
H         7.31721503816552    7.00292317773039    9.36077843414220
H         3.81087532086569    7.87211076010985   10.18778017112076
H         4.99408633723711    7.45837883661742   11.42752955326803
H         5.45662951641880    8.50060045864394   10.08331398099723
H         5.49353243950093    5.85639387244320    7.47431052971846
H         3.95232749541310    6.67224061168477    7.83875139631108
H         5.44098588114165    7.62188571303752    7.77077619405261
H         4.54536042892897    5.02131258653713   11.06268292376873
H         4.78355593041447    4.30679401927553    9.46034650139583
H         3.38580672073717    5.35161083646174    9.77416558560198
H         8.03261319444588    7.00717306210822    4.60997637494406
H         6.38544883741222    6.93542988960621    5.29584454766023
H         6.67150445938589    9.08602675274595    6.29009668853031
H         8.03115219158962    9.25771236884764    5.18538732009677
H         8.07756770173073    8.73782167997522    8.10652758885842
H         9.44434079864074    9.17659946699118    7.08057950442363
H         9.87459181319310    6.91763112645522    6.46619169950440
H         9.20968621085876    6.60684685190659    8.10073633719986

