69
CSD_code = HIZZIZ | q = 0 | S = 0 | Stoichiometry = C24H41CuN2O | MND = 3
Cu        6.21516490115898   10.68398001891805   24.54624681799967
N         7.35904093851423   10.32497912500872   26.31293709308715
C         7.34871556500568    8.90101791823090   26.64721433097302
H         7.22560527895656    8.75361853444344   27.72608687731073
H         8.31045528501939    8.46512121001784   26.36348624175421
C         6.26349993098958    8.14265267767298   25.87536097046236
H         6.47188546024557    8.25660956393984   24.80835098533844
H         6.33960374147943    7.08150757874055   26.12473353474813
C         4.82863443826459    8.60213777839560   26.14491873126786
H         4.60215603678264    8.51146587426890   27.21054749473586
H         4.15212654832099    7.91397199151210   25.63354696809707
N         4.57354442665009    9.98004653456433   25.68508147996062
C         4.38876251258931   10.89028310089191   26.82545714741043
H         3.42724419284824   10.67217080150850   27.32102715779925
H         4.35438612247063   11.90879021392016   26.44087000726337
C         5.48529854335516   10.84282004503052   27.89148154279395
H         5.22055124277318   11.58405919513551   28.64978796626541
H         5.49725222050584    9.87621409589085   28.39393589531542
C         6.88804510332311   11.18324957996896   27.39035098707609
H         6.88970772553211   12.21095348353337   27.01496913559869
H         7.57872253095629   11.14047843402714   28.25212988137649
C         3.43367714843461   10.04086405733008   24.74598544353253
H         2.54283718696245    9.59792452878284   25.22324755798485
C         3.77163687179226    9.27186871592548   23.46895812397527
H         3.94383933499281    8.21394991343277   23.64075589685027
H         4.67702845292597    9.70182486476441   23.03392330137218
H         2.95907473703135    9.36592264439050   22.75367277850894
C         3.11868135039736   11.48063581227658   24.34308817697917
H         2.43340243843970   11.47752167764807   23.49988921254274
H         4.04203740518805   11.97267479475862   24.03348992735841
H         2.65255939446310   12.04670245370831   25.14429521354063
C         8.67118900670241   10.78812450352871   25.82416162739361
H         9.42003892566723   10.71768523721793   26.62978572502688
H         8.55467596413448   11.84378259815539   25.55663101193854
C         9.16079968620034   10.03497203984335   24.61440203668036
C        10.24041003977707    9.17763273722256   24.75650563575186
H        10.66898920773295    9.06895364131032   25.74306079038422
C        10.77257104021264    8.49461875038496   23.67844237485691
C        10.19459810031059    8.73454138578291   22.43310478817698
H        10.61257148795799    8.22557352773171   21.58078337441697
C         9.12398828114856    9.58277764694831   22.23612243533948
C         8.54865673890500   10.24108342520480   23.35691362017236
O         7.50114124632926   11.02550878303668   23.22241457679188
C        11.94119309639569    7.52688871769606   23.79111740494771
C        11.50123419924073    6.14148577634727   23.29582387516129
H        10.66715986419708    5.77707627956438   23.89278791135707
H        12.32217049350372    5.43091035440255   23.37730482106304
H        11.18404203135513    6.17816834650997   22.25751846401798
C        12.44440616877927    7.37576432990986   25.22981578179551
H        11.65856939600677    6.99833955002291   25.88088136726532
H        12.80316749637575    8.32586612032670   25.61901518268231
H        13.27141401721033    6.66798757736874   25.25507268182572
C        13.10728058771778    8.03485217401008   22.93176257486799
H        13.96006478871602    7.36272139212237   23.01304153134855
H        13.41258874137439    9.02492861021759   23.26399850481976
H        12.82364478030023    8.10137842620319   21.88524032896564
C         8.54277713751849    9.82300574929847   20.84711645885355
C         9.27132542673794    9.05409161487464   19.74045414934723
H        10.31988699721649    9.33896183821223   19.68707142098496
H         8.81175129323219    9.28923302717468   18.78157279709025
H         9.19921757389005    7.97864430360261   19.89095645547831
C         7.07042712233596    9.38997587172639   20.83447911128751
H         6.98338323616980    8.33414119387770   21.08717792976585
H         6.63480392908953    9.55073763952022   19.84991453978074
H         6.51657108109654    9.97568124813134   21.56205011686660
C         8.64013361490516   11.32066104597517   20.52823694414867
H         9.68236556938192   11.63418203970933   20.51669549405259
H         8.11221228143261   11.89053412472792   21.28605781728802
H         8.20040228436713   11.53231115342629   19.55488145873726

