69
CSD_code = HOBBUY | q = 0 | S = 0 | Stoichiometry = C36H24N6S2Zn | MND = 4
Zn        0.79181106650614   11.04321605631590    3.68328485487802
S         1.13094611236962   14.74724402358052    6.90175710678561
S        -3.20578697326192   12.51464668111028    6.14432837897785
N         0.78042262817169    8.76924133681030    3.01220256164773
N        -0.65796965863005   10.84579469527659    2.49068350843917
N        -0.29815769047845   13.10398929920661    3.68725334026459
N         2.37450249846206   11.09486556891447    1.91544393133068
N         2.49412319810474   10.88789339740764    4.48400689393100
N         0.39926990479619   11.08222413920821    5.97972063023910
C         1.61325449061252    7.78590172849395    3.29642609244409
H         2.30012055629013    7.97289098023181    4.11152032025795
C         1.62866906310095    6.58060177450203    2.61343131679258
H         2.32958181526285    5.80624306388081    2.88206755032572
C         0.71805035743714    6.39916515402752    1.57899519385195
H         0.69776613208523    5.47205554525459    1.02378736803542
C        -0.15580468361331    7.41999618036516    1.27035278244136
H        -0.87361294384422    7.32135889446435    0.47127098343412
C        -0.09805514186574    8.60949127240154    2.00571136821500
C        -0.93745026180202    9.75104859056593    1.76481103457360
C        -2.04431760088408   10.01901685303606    0.94411893273978
H        -2.51085340373600    9.34563383859415    0.24963081937381
C        -2.43246848895663   11.32425854713387    1.21747757181349
H        -3.24692624246071   11.85790748484938    0.76470256242353
C        -1.53960051156698   11.81056680025977    2.18472647698488
C        -1.40978371601967   13.02706933402682    2.93571971782610
C        -2.38575187467041   14.02955034643967    2.96418908291450
H        -3.25716290094620   13.94019785895156    2.33568172215250
C        -2.22829854515508   15.09047733406929    3.83129269741956
H        -2.97945784620060   15.86402337295313    3.89736144514881
C        -1.09493506132754   15.14860494401778    4.62726952213690
H        -0.93706014281174   15.95759374814601    5.32295413481454
C        -0.13636060956563   14.14317123864914    4.50164160504366
C         1.10338046872653   14.19658437295571    5.25634196544242
C         2.35607306125109   13.86418701687485    4.82730233328130
H         2.55923605231862   13.53498740575227    3.82464317835825
C         3.34161995515805   14.03891484265977    5.82024610472901
H         4.38366858757957   13.82243833572026    5.66914529018479
C         2.82884434635422   14.49888937642529    6.98997226716730
H         3.34119309123080   14.71548229540747    7.90622297489247
C         2.20144590497501   11.14379004966249    0.60816230983250
H         1.20207863640825   11.39240406694978    0.27562684567235
C         3.21576244297053   10.89873897724180   -0.30328258178182
H         3.02536250814535   10.94966648084972   -1.36363896203814
C         4.47927780741650   10.58901794203446    0.18638225047569
H         5.29695478346841   10.39300415472190   -0.49307153018699
C         4.67249692196414   10.53169922500643    1.55032688840134
H         5.63583793008639   10.28879179262568    1.97047715790540
C         3.59026619003630   10.78467542286457    2.40110764188460
C         3.65992739165823   10.73272057112792    3.83576018512654
C         4.68866913882881   10.57990477587684    4.77853308154780
H         5.73384062298908   10.43851829092666    4.57600665704530
C         4.09338144462053   10.66451717589043    6.03049726382623
H         4.58755925883402   10.58685756281051    6.98069344282335
C         2.72075184054895   10.85167370739196    5.80654794825676
C         1.57149648551450   11.07468622278333    6.63720399357650
C         1.64598799168643   11.34644751024481    8.00797799510292
H         2.60279569632959   11.31630337917889    8.50390054436906
C         0.49410277427805   11.68972542829506    8.68434671330492
H         0.52489912944811   11.93407791834159    9.73614474852338
C        -0.70750918532069   11.72714560204032    7.99424655844155
H        -1.62942620974229   11.99730983238621    8.48458219799769
C        -0.71367223271871   11.38673026381474    6.64160561133627
C        -1.95606851670884   11.33763022692357    5.89101418556685
C        -2.32537107980306   10.42268877152613    4.94747083511341
H        -1.70587935857480    9.58886846791326    4.67185127916329
C        -3.60763869878007   10.66862807816271    4.41542623166023
H        -4.06419569182005   10.05888485837316    3.65692632087756
C        -4.19653964583550   11.76515804782160    4.95719969875924
H        -5.15851336892860   12.18491146726540    4.73957886568291

