83
CSD_code = HOBBEH | q = 0 | S = 0 | Stoichiometry = C26H50P2PtSi4 | MND = 6
Si       13.26530608209954    1.52898068092124    5.21257533412461
H        12.72869191072238    0.12561132946956    5.24402630032844
H        12.02801849224150    2.20595917602187    4.73300127039907
Si       15.90269891143005    3.19176523134022    6.28122568473379
Pt       15.42024243951029    2.03109984415218    4.22422865171469
H        14.79791146167548    3.37045637139979    3.82639974368611
C        13.37725076160683    2.01666794139138    7.04241847617824
C        12.36403590271524    1.69565629900873    7.93164886499788
H        11.50315323218377    1.15153256748507    7.56996241088270
C        12.44168870024157    2.05954330001575    9.26373717556759
H        11.64517886602652    1.79974585414791    9.94736416480318
C        13.54635616102153    2.76112793332757    9.71794280243328
H        13.61524258460257    3.05050235625149   10.75752829962614
C        14.56046789323416    3.09012778360741    8.83678190768220
H        15.42031901874093    3.63858988243224    9.19440553980647
C        14.49313446036708    2.72293072064791    7.49818130733670
C        17.55275542034465    2.79122308347646    7.19843034793035
H        17.72405459732988    3.54196598487220    7.96258181461434
H        18.40008811223988    2.81532958624248    6.52153559255180
H        17.52977396030773    1.82359975344504    7.68877724661476
C        15.89906462815082    5.11190976986109    6.12669921335206
H        14.94538595285091    5.48295181198128    5.76567359310477
H        16.66897656036315    5.45050257974162    5.44023551290530
H        16.08697467431339    5.56339187714456    7.09576275288742
Si       17.51052768338397    2.73167828134770    3.21586084051359
H        18.68043987747656    2.84621815917154    4.12245761404993
H        18.13126567227735    1.77624831628360    2.22580206991203
Si       20.26015237246313    4.89815373925643    2.92324397503736
H        20.71437016317222    3.50337954460619    2.79102163111199
C        17.50208699984018    4.32574593297709    2.17261680313158
C        16.33599416473831    4.64534182915107    1.48625249859778
H        15.46059457193417    4.01772944790839    1.61114503729544
C        16.24000144837917    5.74884028330116    0.65995760830878
H        15.31544027704256    5.96463772963309    0.14131821360202
C        17.33827671613243    6.57517378444867    0.51170103414182
H        17.28754354367977    7.44614119104799   -0.12724704910086
C        18.50235040201087    6.27849718610824    1.19565806542803
H        19.35266260376918    6.93397675252481    1.07496475440156
C        18.61361640598335    5.16449362101704    2.02697489917016
C        21.62349269853468    5.97919526959576    2.14397873421647
H        22.58888479063567    5.74752416717427    2.58331895026610
H        21.44377922686758    7.03794251141710    2.30398822951212
H        21.70413247874358    5.81296090825268    1.07442260080319
C        20.09941818875506    5.42388306396727    4.74775780639316
H        19.29280016049740    4.89287869015735    5.24185230365088
H        19.89136126219461    6.48747630886469    4.83201302676374
H        21.01549951914961    5.22454016588715    5.29623312478798
C        16.14858216576843   -1.13500262327611    3.27372049606574
H        16.97408960401170   -0.88423257713238    2.59696425280622
H        16.24414337219730   -2.18741553503879    3.56149981874275
C        14.81515975577490   -0.88338753633019    2.58338374470325
H        13.98530472142730   -1.14092121197053    3.24975318021064
H        14.72427424174142   -1.48414017880991    1.67271996432969
P        14.66598050539347    0.91231386539380    2.18881836604354
P        16.33632046753572   -0.05517394747332    4.76575070485269
C        12.90479141486162    1.00726184578449    1.66485142491863
H        12.72814153879363    0.28578553423073    0.86176434691404
H        12.30186372990557    0.71793185676058    2.52961846046609
C        12.54320668252795    2.42251569309992    1.23325352974598
H        11.48905933287884    2.48511849545453    0.97040430493036
H        13.13231717949728    2.73339791885724    0.37172046763193
H        12.73496415479725    3.11781209039600    2.04983164624031
C        15.59174255754442    1.02930449840301    0.58921787452135
H        15.72034874569530    2.09409993873074    0.37510203946606
H        16.59190464983788    0.63645916830399    0.79952997252897
C        14.99414388621842    0.32196222005688   -0.62099355053607
H        15.70491939896230    0.36319520919744   -1.44455895666981
H        14.07657897375802    0.80346531949531   -0.94940828696310
H        14.78186055107197   -0.72572975234390   -0.41595905954413
C        18.14399018918643   -0.21614118083835    5.08784821673063
H        18.63816672143338    0.25185433415086    4.23145777505243
H        18.36057757356529    0.41089372423374    5.95643092905180
C        18.69317258817130   -1.62178052539188    5.30504396995789
H        18.29479318825751   -2.07349217878036    6.21008179723909
H        19.77542893636134   -1.56843412992678    5.40905582062676
H        18.47117550676822   -2.27246848230290    4.46216884996357
C        15.59800371171128   -1.16851023958374    6.04176604426559
H        14.52861273930873   -1.23937792358783    5.82384265093340
H        16.03572473021759   -2.16467707679244    5.91837441074030
C        15.79243607817920   -0.66941258111475    7.46643904434694
H        16.84887146411478   -0.62000729027966    7.72356120729453
H        15.30283489804051   -1.34304381336038    8.16773316450853
H        15.35725203245663    0.32034846936096    7.58939459760660

