54
CSD_code = HOBFUA | q = -1 | S = 0 | Stoichiometry = C6H28B18CoSi(1-) | MND = 10
Co        4.49044703460674   26.85606234854406    9.38578197219730
Si        5.54116138322840   30.10220834901711    8.98388236295348
H         4.61905744581464   30.43687538181690   10.10952146130025
C         5.17095953383190   28.48291144808004    8.09362515156591
C         6.17870952143616   27.30901782979949    8.20272824278031
H         7.02729956609769   27.45314308943038    8.86707121575501
B         3.65734500524206   27.87686875837496    7.76772412660140
H         2.71710380250999   28.51808045696714    8.10952527790927
B         4.60307777755161   28.63655176970903    6.45856811652165
H         4.29016540162350   29.70959013940316    6.06931577937230
B         6.28304378623756   28.28126991437393    6.77111110007687
H         7.17729605177511   29.05266894913393    6.67633297768869
B         5.50581308992825   25.80700903308222    7.97031022619106
H         6.03599044253376   24.85291301017378    8.41903072718512
B         3.79959788702670   26.11591809945018    7.61630088660040
H         2.91885016282240   25.33651263060529    7.71329668633761
B         3.75870955012650   27.13962178013104    6.15318460091510
H         2.83032565574915   27.09318641934607    5.41708211169016
B         5.42342982664376   27.36708300387383    5.54527097840293
H         5.68718742454480   27.48577445401419    4.39548134747663
B         6.49867129184387   26.55918634120141    6.69617956283373
H         7.58117235146202   26.12258246650017    6.49518452735960
B         4.94955938766850   25.82040740831310    6.28372328232057
H         4.88508089209665   24.83051195308646    5.63559322832391
C         4.98694745892545   27.60611832717205   11.28406431916899
H         5.65046845746964   28.45298050432449   11.13601501178261
C         3.49680975354476   27.81800865194706   10.93495511507885
H         3.20509781115869   28.79664668508486   10.56744544987016
B         5.46648080007883   26.05589030729431   11.04257344004013
H         6.60718315334761   25.83688361470438   10.79956842489967
B         5.19936046664715   26.67136099593863   12.70282940705047
H         6.14267598293810   26.88723189864334   13.38794273009939
B         3.92285397365217   27.85858734514413   12.61254875205231
H         3.95239376446931   28.91656185287213   13.14326840914260
B         2.76546785242014   26.43031442379714   10.41444569748921
H         1.80262329454733   26.49348526543510    9.73645352840127
B         4.02401280874515   25.18963740897579   10.50548281401641
H         4.01925151952087   24.16709244018983    9.91789049826027
B         4.54979896694162   25.11157361204092   12.22145038577722
H         4.95841760655879   24.09570651117379   12.67592314931654
B         3.55688814779574   26.23762298317270   13.19246911639211
H         3.26432254876728   26.03001921292125   14.32215799471924
B         2.47008356651324   27.06151013752098   12.06588636548668
H         1.41730794675794   27.55063205426208   12.29878950617652
B         2.82764368658660   25.35238871621375   11.82252206271683
H         2.01261749640591   24.51203085601072   12.00535193197911
C         7.32544691425340   30.17406939858238    9.68312446928169
H         8.06247552931750   30.11497848585368    8.88747185472593
H         7.54321648341752   29.37709339921243   10.38707212566365
H         7.48531861465314   31.11404606783262   10.20474993538354
C         5.39854917037872   31.64669660849669    7.86562795454094
H         5.69331658035747   32.54794016141429    8.39784704550934
H         4.37797784252199   31.78593434888888    7.52534018159486
H         6.02573752890648   31.56140269045165    6.98420637302415

