64
CSD_code = HOBGOU | q = 0 | S = 0 | Stoichiometry = C30H23F6IrO2P2 | MND = 5
Ir        3.28287444602573    0.87632389461225    3.71839947360534
P         2.56279363180282    3.34177067295454    3.81685141354249
P         4.82887735780086    1.66447851092984    5.27002031539984
C         4.44066602553253    0.83312313990447    2.23539766022289
O         5.19219990546263    0.71505522431861    1.37069547771032
C         2.40719149532032    0.17196253542740    5.21722505585076
O         1.99896720887440   -0.34157488650199    6.17078159926476
C         3.53953501688273    4.10422892808214    5.20834833649438
C         3.94722081648168    3.01457255829206    6.19482332269869
C         5.22579481763656    0.43876120152326    6.57021128962863
C         5.86950034960370   -0.76409644361183    6.25221873148246
C         5.97979973178108   -1.78804780752790    7.18090188285809
C         5.44019750803337   -1.64227798820472    8.44586663839388
C         4.79184717702618   -0.46596790436462    8.77448869946762
C         4.68083152333081    0.55501953124189    7.84882311928864
C         6.45003504447332   -1.02415019949016    4.89342525074773
F         6.78777640588486    0.09861529589233    4.23113904651787
F         5.60173810560419   -1.69093668844971    4.09485192183368
F         7.56789334811685   -1.76467423873532    4.94700392820242
C         6.33034069505716    2.65088346951119    4.82412354483831
C         7.50028909210760    2.90298977470692    5.54573031106487
C         8.51104472538079    3.68489765172965    4.99599407320998
C         8.36931010144347    4.24802103115608    3.74174568984719
C         7.20639118923946    4.02928367725494    3.02505324543836
C         6.21387233518336    3.23353358198736    3.56271143095571
C         7.72977451418473    2.35821548774095    6.92638854825575
F         8.77899601682870    2.92381861801313    7.54139123909406
F         7.96729477061004    1.03575761366694    6.94697502969142
F         6.68223785985081    2.57424480652536    7.74683244689910
C         2.71297501123718    4.56329149957054    2.47028587149931
C         2.10188509208402    4.16909435366937    1.28062382033844
C         2.13800536780600    4.98581150369651    0.16856750484754
C         2.80013529716042    6.20274071917846    0.22878339882863
C         3.41957533425602    6.59386115190483    1.40308507854808
C         3.37883418946730    5.78135652008021    2.52391348529994
C         0.85739381546897    3.73564372071899    4.34902307273293
C         0.44308747456796    5.05125967018819    4.53663735459317
C        -0.84939644199838    5.31441777351812    4.94800720203396
C        -1.73639993702312    4.27167951824678    5.16906118786539
C        -1.33139712702459    2.96292024797740    4.97021996724139
C        -0.03768763112628    2.69472562513625    4.55765203943755
H         2.24655982171529    0.14422874131989    2.79644293298817
H         4.43585003970338    4.57034801636530    4.78934650207938
H         2.94266202512425    4.87086570731125    5.71149282985498
H         3.04476027587523    2.57227917201655    6.63011572412176
H         4.56873373725515    3.42934212209347    6.99350864390747
H         6.48926108535789   -2.69836768601131    6.90422247280816
H         5.52422710761003   -2.44276113713693    9.16371830648327
H         4.36286085874455   -0.33816159737455    9.75690514765701
H         4.17505727957729    1.46072465740515    8.14022661258103
H         9.41427832924984    3.85479193791450    5.56163774823604
H         9.16461683934985    4.85023880053116    3.33153630724361
H         7.07296084629692    4.46398456715364    2.04604266493900
H         5.31848951807515    3.04485113332808    2.98348290260531
H         1.60672653963549    3.20633734741267    1.24671985835291
H         1.65813749894573    4.67456719461642   -0.74728734208469
H         2.83659876831630    6.84337310609097   -0.63968209720391
H         3.93805656324555    7.54085571975923    1.45065317320867
H         3.86525088890530    6.11184817160520    3.43036530030868
H         1.12899229616489    5.86677333695892    4.34937687750125
H        -1.16945449587643    6.33608758979105    5.09324344385261
H        -2.74559773916131    4.48330588520813    5.49013495103970
H        -2.02329826460561    2.15012016591805    5.13370509196291
H         0.28976852012338    1.67713369522227    4.38731324173858

