65
CSD_code = HOBGUA | q = 0 | S = 0 | Stoichiometry = C31H22F6FeO3P2 | MND = 5
Fe       10.63869048098722    1.63470658433567    6.10687071239605
P         9.42613630821819    0.60959116354476    4.61724423665510
P        10.77875957566780    3.30429264598425    4.76062547527173
C        10.60591933933283    0.55685665285201    7.48594444583711
O        10.57965277488287   -0.09132571562694    8.43400989311693
C        12.39072660384397    1.40102082048078    6.05236936867494
O        13.53797010224168    1.29120457167607    6.06931983094838
C         9.57157744794279    2.64360283252835    7.07716365415289
O         8.91156010923139    3.31451926220244    7.74419407132709
C         8.99995911880499    1.82710799540312    3.25339410401618
C         9.26835776537051    3.26723583276442    3.68128927631467
C         7.77490955439297    0.11951062449596    5.25956025376409
C         7.46014734691904   -1.11847650452764    5.82394738626712
C         6.20618143195180   -1.35604598913241    6.37324826719409
C         5.25596879952180   -0.35380664587510    6.40013111321667
C         5.57046615743269    0.89615402883637    5.89360173869517
C         6.81290167534010    1.12597657679096    5.33831559672277
C         8.46537453716880   -2.22770546491902    5.86363527659973
F         8.20626691604310   -3.13609793754853    6.81266018340423
F         9.71017110929516   -1.78096351968110    6.10384106753321
F         8.53260262903974   -2.92457338673271    4.70738817727886
C        10.01179805942643   -0.77406499693342    3.52579893525499
C         9.42137899965980   -1.34201418181723    2.39124588824081
C        10.10754095335821   -2.29744141213024    1.64721509317540
C        11.37324689486313   -2.71320867270869    2.01403746811772
C        11.96548150986670   -2.17102915475370    3.14026008302676
C        11.28922756368652   -1.21513266319208    3.87267730968301
C         8.06466903683855   -0.97494045279310    1.85947878850892
F         8.13852751924346    0.02695773302917    0.94985248972006
F         7.47143262567074   -1.99286491052115    1.22031228669778
F         7.18297011152469   -0.56323778827499    2.77969645518688
C        10.78728474415578    4.99628561365948    5.42435105916070
C        10.09284953508798    6.06912892393792    4.87437234113907
C        10.17200377213670    7.31578984483793    5.47062309654344
C        10.94497478950175    7.50191080716684    6.60487834991146
C        11.64374895610142    6.43719052407363    7.15183968970012
C        11.56139971491853    5.18842382855605    6.56615887138540
C        12.08314229298868    3.38090007733007    3.48382099984147
C        12.48261851588066    2.18507501303515    2.89370560432183
C        13.43397946008579    2.18411635736504    1.89167845393843
C        14.00325102171917    3.37797993493038    1.47847772078952
C        13.61688959994866    4.56963588044617    2.06916549061364
C        12.65880249227590    4.57686068074075    3.06759596680446
H         9.67246319726593    1.57823557609589    2.42311139705348
H         7.97033205410116    1.70692284735257    2.90883981182738
H         8.45005078894695    3.66365600600753    4.29479326215278
H         9.39975134291763    3.91079871422051    2.80481822586637
H         5.98618642400423   -2.32753196528212    6.78914233471991
H         4.28414687531341   -0.54410970875185    6.82761494428807
H         4.84567305442974    1.69554464304073    5.93390405927028
H         7.04775769988733    2.11196730270281    4.96719665810932
H         9.63455300858203   -2.72211652544935    0.77478173428459
H        11.88489502861702   -3.45831973867976    1.42514838774836
H        12.94963860664753   -2.48801681544579    3.45017332813975
H        11.74350605002332   -0.79148629694911    4.76090387746895
H         9.49213490619921    5.93828721649980    3.98588890889065
H         9.62612712410981    8.14634034518451    5.04699027945972
H        10.99924102885565    8.47735031646735    7.06495122470157
H        12.24447810844704    6.58056380691738    8.03760005822207
H        12.08232694620523    4.33603492026751    6.98874531758805
H        12.05098285781331    1.25204685781115    3.23677459647080
H        13.73623571075770    1.25139822776389    1.43812159430199
H        14.75262999432561    3.37878501298765    0.70100392940698
H        14.06553665587867    5.49994714168988    1.75283936802827
H        12.36483458409318    5.50949670172827    3.52806013084837

