126
CSD_code = HOBGUB | q = 0 | S = 0 | Stoichiometry = C52H66CuP7 | MND = 3
C         2.59805842624354   -0.25011909947368    4.12378928196486
C         3.54758463745867   -1.44145276145558    4.02086482229643
H         4.02287131204470   -1.45647474066780    3.03980309099031
H         3.01131970442726   -2.37876479847041    4.15776902672116
H         4.32388305879453   -1.37718965738662    4.78187146028727
C         1.46272551388328   -0.39020500311718    3.12168540185988
H         0.79689237231666    0.47684101503982    3.17898092147178
H         0.87983360446175   -1.28371683769650    3.32918767530021
H         1.85369051303625   -0.45075329784853    2.10485632312431
C         3.38504764647115    1.03016856366892    3.84288561166104
H         4.22715228695585    1.11634242454563    4.52966554147653
H         2.74709701601307    1.91110705228790    3.97654574493249
H         3.76089521722363    1.03931740481499    2.81907252300820
C         1.86793661397784   -2.22606427241745    8.13389372731644
C         1.33372014489791   -1.06635699867831    8.96774635679554
H         0.24506701992556   -1.08953747649750    9.00124284158499
H         1.63925648920521   -0.11177181142941    8.53798200016834
H         1.71464947920264   -1.12992911758827    9.98756739644485
C         1.37686545204362   -3.54846677436691    8.72103936074161
H         1.70045145999565   -3.64245280411752    9.75735174375247
H         1.77529004778701   -4.39271364784869    8.15979739170521
H         0.28887993654690   -3.59644095423435    8.69541563655098
C         3.39668856070120   -2.21302465459876    8.13562656518686
H         3.77171536354105   -1.27470021473326    7.72741366389481
H         3.78724768110205   -3.03149999875204    7.53147304722745
H         3.77491338022397   -2.32332377603661    9.15163723334265
C        -1.35690528198163   -3.45340432511590    5.45065733503786
C        -2.88195657554285   -3.50127338605197    5.38110333889302
H        -3.26733555161096   -2.60829487525683    4.89383732098586
H        -3.31297759240420   -3.57305844043016    6.37904923284815
H        -3.20408550892668   -4.37129128755546    4.80868021054900
C        -0.80173235652315   -3.31970332798675    4.03703873035915
H        -1.15737505600083   -4.14591231015291    3.42041055475648
H         0.28722797810104   -3.34941800866117    4.04840174483107
H        -1.13190979688026   -2.38608721316679    3.58223845081048
C        -0.84619602455787   -4.75110704442970    6.07617393299428
H        -1.13981915878491   -5.60443973336074    5.46517938559349
H        -1.25894965485241   -4.88637663688813    7.07479863309803
H         0.24042334758008   -4.73813909068485    6.14954175919870
C        -2.77487058450860    0.50962851075849    6.51430395951999
C        -3.01311215610992    1.92100348274670    5.97181325307502
H        -3.81283650121137    2.40930811660661    6.52896741389860
H        -3.29359368380093    1.89305726967177    4.91883553835771
H        -2.10874395707286    2.52107872509329    6.06952439883452
C        -2.43450714264578    0.58045449239650    7.99940603034433
H        -1.50878931252752    1.13293642075789    8.15325867202733
H        -2.31532270525828   -0.42012833513850    8.41278815495051
H        -3.23640677973883    1.08406590109150    8.53973414080047
C        -4.05281784643496   -0.30675718736828    6.33120893535627
H        -4.88597480379923    0.19074685260383    6.82795319309837
H        -3.93843479012485   -1.29663549555136    6.76630429559442
H        -4.30067297993441   -0.41135982450037    5.27523452354563
C         3.22629268918422    4.04320810565348    6.65500999892750
C         2.93204573019680    2.96304748176559    7.47920962759568
H         2.05872128440751    2.35717159293902    7.27208125228252
C         3.75183848725407    2.66264204788504    8.55148476350038
H         3.52316478473305    1.81490456197373    9.17968002215330
C         4.86328248539599    3.44581263727095    8.81240879366367
H         5.50837638482217    3.21145330104196    9.64648740354006
C         5.14819445094245    4.53540784878088    8.00419439784982
H         6.01060631095938    5.15247163018727    8.21252966329041
C         4.33392718241912    4.84051150734564    6.92982062156100
H         4.56536970522260    5.69096388624639    6.30350826537591
C         1.06115884711653    5.66429528458124    6.14853048781132
C        -0.16325596125921    5.23822220552391    6.65346826352538
H        -0.46170318261750    4.20684557138742    6.50121493663168
C        -0.97788577126119    6.11499192772579    7.34468059511563
H        -1.92850303273901    5.77813418386110    7.73113348887550
C        -0.57000721222433    7.42453820975509    7.53808794607765
H        -1.20602403877450    8.11586139710309    8.07123492219944
C         0.65982502507699    7.84655051465894    7.05813592978743
H         0.98342344206046    8.86394492321520    7.22459472891052
C         1.48079984670478    6.97083008749634    6.37190774293952
H         2.44426360930116    7.30257692649239    6.01184162903486
C         3.09805576017139    5.33483073381797    4.13045699337353
C         4.33282411677380    4.79270678144187    3.76893814908921
H         4.68594691346069    3.89867707714733    4.26564798817416
C         5.09592918810515    5.39304974514697    2.78628767858517
H         6.05614410168190    4.97449191613831    2.52166219843609
C         4.62791723862175    6.52556835002733    2.13705694416615
H         5.22454435549497    6.99418939269536    1.36845962260136
C         3.38947999888907    7.04950299309626    2.47009098286108
H         3.01519868322337    7.92430148815209    1.95853303165001
C         2.62143265852922    6.45542556383494    3.45501322534058
H         1.65089350059871    6.86134560586166    3.70263886797169
C        -0.16604908813109    4.95653020564399    2.24778555509287
C         0.29428511041250    5.72049313453975    1.18232585003282
H         0.84322315892875    5.25546134858604    0.37528492395259
C         0.04810502258292    7.08206080675745    1.15972969633720
H         0.40186051330112    7.67449590049769    0.32819064147397
C        -0.64724733060636    7.68777134193536    2.19402272907832
H        -0.82792170223024    8.75240282669650    2.17198573910922
C        -1.11033666522741    6.92853923049181    3.25776535531099
H        -1.64871523256488    7.39651833621512    4.06912991796047
C        -0.87193199641611    5.56818587264254    3.28173644161800
H        -1.23029427718021    4.96084302690445    4.10444126005907
C         1.21951254495604    2.70635932466944    1.11824352174289
C         0.95207734652853    1.68266838806675    0.21473788520196
H        -0.00727061663110    1.18462742995332    0.23040540475658
C         1.91695842849469    1.30428159740641   -0.70134478964894
H         1.70489948918090    0.51210935405841   -1.40467076384744
C         3.15259407186397    1.93085450113146   -0.71657203284184
H         3.90235687292863    1.62935606941523   -1.43309606053134
C         3.42912167546571    2.93796209434411    0.19493880444018
H         4.39419219581081    3.42372824517919    0.19552221534166
C         2.47145539173269    3.31791302212414    1.11456212566028
H         2.68674336343204    4.09313133607772    1.83675761403959
C        -1.52876995345116    2.56607837340024    1.77011962120871
C        -2.10684944382813    1.44279814723568    2.34726916636234
H        -1.61863649056880    0.96572016100175    3.18889861756059
C        -3.30055928904387    0.94511073693980    1.85630548716894
H        -3.74336027067702    0.07039222266744    2.30932310570599
C        -3.92251162234068    1.57106335906601    0.78956781924455
H        -4.85589841493860    1.18667980661763    0.40529395156141
C        -3.34921782219608    2.69498616023128    0.21348866990560
H        -3.83628928627064    3.18282656982111   -0.61847846662018
C        -2.15567074836381    3.19554704335239    0.69793285644628
H        -1.70903948860523    4.07154963935418    0.24800584525213
P         0.21848953081279    1.08382425608989    6.09207229093575
P         2.02467228950019   -0.09803996215508    5.95297858717673
P         1.31495557761983   -2.14829219073301    6.31250075103728
P        -0.86169010158972   -2.03753912911196    6.64020163984880
P        -1.38977318174931   -0.26556142035085    5.43729786349234
P         2.06091839375226    4.40179462650734    5.29448136363724
P         0.06021709018727    3.15931751558291    2.44038055779736
Cu        0.67175891022199    2.70256419874129    4.57263954594903

