95
CSD_code = HOBHAH | q = 0 | S = 0 | Stoichiometry = C44H46O4Zn | MND = 4
Zn        9.92550071221033    0.00000047936781    9.45845500527609
O         8.93332462511486    1.45806211730206    9.14117794444270
O        11.18568130025131    0.81067704394538   11.08882553072358
C         9.32974279059525    2.71735162991470    9.13735773260488
C         8.44891518533056    3.71220790020873    9.62870929800903
C         8.84376700435514    5.04197959271977    9.65739225815607
C        10.09464739717708    5.42871068894482    9.21215376036325
C        10.96779114813808    4.46748001786259    8.74175226159217
C        10.60900752359544    3.12401528766602    8.69692191533672
C         7.10845965332458    3.34576099192877   10.11237877922454
C         6.62376363992265    3.86795173698509   11.30989188127085
C         5.35654314705034    3.54596754527628   11.75915029429572
C         4.55173694443025    2.69392586001424   11.02090841810293
C         5.02505062235634    2.16652024168133    9.83097800095914
C         6.29144186648735    2.48904123935809    9.37924992546916
C        11.58280551517782    2.13937953668793    8.20480788024184
C        11.21359270175908    1.17092361643535    7.26795027553681
C        12.15429190371590    0.28767292625497    6.75871654752938
C        13.46868174835211    0.34568484301746    7.18317325982846
C        13.84686120821192    1.30416650408913    8.10995664109438
C        12.91716915513960    2.19295671841103    8.61138710815051
C        12.51658906652841    0.34766024759774   11.30091331097153
C        12.74819514547216   -0.34913412401174   12.63678725130966
C        10.68627248875158    1.73568732887080   12.04689862639994
C        11.48292920701902    3.03049526813895   12.15794325580751
H         8.14525968065704    5.78523830338271   10.01510550125238
H        10.38325528019815    6.46894755492285    9.22656604049531
H        11.94314132387365    4.75798639981036    8.37603927156333
H         7.25158398485174    4.52449971353721   11.89616014017778
H         4.99435284906533    3.95997774825270   12.68987089069756
H         3.56012526254951    2.44482023852332   11.37108251498561
H         4.40109846549351    1.50301518922998    9.24943877474771
H         6.65756401548550    2.08207567923369    8.45022486232246
H        10.21524665888945    1.19582182298176    6.85675438311866
H        11.86335645592794   -0.43697038891628    6.01093242483207
H        14.20154353461415   -0.33899713431381    6.78152940328165
H        14.87569538318998    1.36273738378165    8.43656491447516
H        13.22559212650196    2.94742465516548    9.32187358463840
H        13.21891593451422    1.18182359946303   11.19069668229670
H        12.68443140488800   -0.35859251528696   10.48697083828614
H        13.73433275923720   -0.80463568153067   12.61802808261920
H        12.70489459456152    0.34700327287206   13.47154433282795
H        12.01387656818440   -1.13527239158613   12.78993960138926
H        10.61836668711971    1.24980063152634   13.02971117004446
H         9.67780840237186    1.96599666928356   11.69996526409736
H        10.94416949195125    3.71839120342127   12.80414400413873
H        12.46895313944931    2.86122278263002   12.58372310011325
H        11.58505972744145    3.48966019703151   11.17843138908444
O        10.91767515626162   -1.45806217006027    9.14117609078392
C        10.52125599028766   -2.71735129986271    9.13735677959026
C        11.40208292792915   -3.71220776966855    9.62870926071524
C        11.00723061666780   -5.04197932061065    9.65739270781796
C         9.75635029588699   -5.42871009586013    9.21215381572169
C         8.88320712139355   -4.46747925369173    8.74175155350450
C         9.24199115552019   -3.12401464988206    8.69692086100790
C         8.26819352001930   -2.13937879221909    8.20480648116635
C         8.63740685232519   -1.17092246331276    7.26794954012365
C         7.69670797302915   -0.28767144743516    6.75871580885646
C         6.38231793900099   -0.34568342184331    7.18317190437274
C         6.00413799215476   -1.30416543788720    8.10995473171570
C         6.93382975173275   -2.19295595353172    8.61138520980652
H         6.62540642255280   -2.94742415106306    9.32187125894557
H         4.97530367439562   -1.36273642636638    8.43656250928019
H         5.64945640041330    0.33899880896384    6.78152801080473
H         7.98764383680257    0.43697220414318    6.01093216474179
H         9.63575311722674   -1.19582045377581    6.85675420685581
H         7.90785694257993   -4.75798544166824    8.37603843188698
H         9.46774196465390   -6.46894682821922    9.22656639139879
H        11.70573745395449   -5.78523806838890   10.01510683296681
C        12.74253831426486   -3.34576120238699   10.11237915762561
C        13.22723307044854   -3.86795095051706   11.30989322373989
C        14.49445367090510   -3.54596759302664   11.75915191633539
C        15.29926133452390   -2.69392797935732   11.02090923191905
C        14.82594883946958   -2.16652318620931    9.83097796876083
C        13.55955735321166   -2.48904303647624    9.37924981608308
H        13.19343583978379   -2.08207783757558    8.45022433230740
H        15.44990206101543   -1.50301953933762    9.24943825649652
H        16.29087325089132   -2.44482335279780   11.37108337071700
H        14.85664295877510   -3.95997694700113   12.68987328728529
H        12.59941171392996   -4.52449764298006   11.89616184315262
O         8.66532073265447   -0.81067818494069   11.08882466965419
C         7.33441279863432   -0.34766198438799   11.30091284647563
C         7.10280748933936    0.34913458199510   12.63678575788069
H         6.11666956109552    0.80463545809214   12.61802675065302
H         7.14610935199936   -0.34700131565562   13.47154401878870
H         7.83712570452976    1.13527360369276   12.78993596069059
H         6.63208649890162   -1.18182609755968   11.19069835959331
H         7.16656921823743    0.35858922077697   10.48696929858132
C         9.16473071475341   -1.73568718073941   12.04689843567347
C         8.36807491618661   -3.03049557459358   12.15794439264674
H         8.90683568003367   -3.71839092470789   12.80414488305074
H         7.38205130091049   -2.86122353601159   12.58372514114802
H         8.26594371960383   -3.48966088303543   11.17843277030205
H         9.23263652390206   -1.24979955698641   13.02971051220163
H        10.17319484571790   -1.96599609811633   11.69996491199246

