101
CSD_code = HOBHOW | q = 0 | S = 0 | Stoichiometry = C31H63AuP6 | MND = 2
C         9.15712808888141   19.07656593635767   13.71515123479703
C         9.27634921343010   20.59328197446270   13.57231126147759
H         8.29954822285368   21.05958124436491   13.70123105532064
H         9.65677563582176   20.85386039609448   12.58619310862806
H         9.95479182622839   21.00219854716014   14.31948775452240
C         8.63336467749346   18.71718427622730   15.09708884001809
H         9.24094278614861   19.19129202177277   15.86272860012602
H         8.67136612179720   17.63568505232978   15.25010307781349
H         7.60165242744838   19.05303851119142   15.21557859166210
C         8.20934555819801   18.55886829894294   12.63457256503112
H         7.21034120603717   18.97690690630267   12.76489460113678
H         8.14250920459486   17.46857973243329   12.67768868691437
H         8.57415660234645   18.83461232631081   11.64590326728856
C        13.60304644519292   19.65560878089527   13.78497274902505
C        13.20262996495156   20.66378621259239   12.70765823564124
H        14.06571256166670   20.92479986345401   12.09602752336527
H        12.81200505090301   21.57498924686741   13.16025788378680
H        12.43481840888076   20.24431009261667   12.05826741798464
C        14.69160820431686   20.26864001541743   14.66502674675584
H        14.96834645599995   19.58255797260687   15.46466710853052
H        14.34976315913222   21.20227514599284   15.11021153676000
H        15.58004677900981   20.47812416441845   14.06997791098203
C        14.12692867499104   18.37743857304794   13.13812366602109
H        13.34580382101894   17.89358107652300   12.54942089851517
H        14.46361202237170   17.67432742132213   13.89929488789972
H        14.96614636979653   18.60578540540882   12.48072388505379
C        12.42715757150113   18.60750814502438   17.85629846623484
C        12.77058248200593   17.62085752439134   18.97030799540282
H        12.62482894216849   18.08963231383914   19.94372051730583
H        13.81033432607632   17.30371559245593   18.89977709637959
H        12.12839246019296   16.74443511853917   18.91204893884501
C        10.95996142343028   19.00187869653381   17.98035700028952
H        10.75617036548106   19.35954707529116   18.99031973141782
H        10.31433074852648   18.14676130890460   17.78085822803668
H        10.72317360321575   19.80414689621098   17.28299717975699
C        13.30123868225211   19.85231737127585   18.00693049905261
H        13.08961555788561   20.56649908236653   17.21227148946148
H        14.35726354798673   19.59002634374510   17.96427910433268
H        13.10607084790661   20.33495777437083   18.96437466489337
C        12.52744603716290   14.67579251890214   16.05603488073047
C        13.74429771888235   14.78935451755160   15.14420417940140
H        14.41548305662901   15.57261906810397   15.49369658806654
H        13.43731380207846   15.02039622073417   14.12475351676876
H        14.28976748964245   13.84544579477266   15.13823573521074
C        12.99308868115617   14.44493829215364   17.49281356006447
H        13.53724133857294   13.50265670960774   17.55953513921013
H        12.14466952035495   14.39812013955837   18.17531623050195
H        13.65681847300391   15.24514610299481   17.81075216662856
C        11.67290914328203   13.48343028691882   15.62207587889674
H        11.35574748374665   13.60411669073003   14.58636115460502
H        10.78810974874025   13.39931756613162   16.25438972374118
H        12.24495377069844   12.55899723058372   15.70589057126015
C         6.92775439835195   12.52078877520414   14.30695218582706
H         5.90017412625766   12.19128330851280   14.50637201067162
C         7.83564277863285   12.21358069089529   15.51687937854421
H         8.42271466420917   13.09123187071778   15.79470509780912
H         7.23751214494157   11.92347354688508   16.38048536552236
C         8.76731174970079   11.07255122323752   15.08129034071436
H         9.74475828010188   11.47342484737866   14.81324049963276
H         8.90733373384808   10.33630020126021   15.87091075153956
C         8.10427848263073   10.47885184298673   13.84240093793156
H         7.30030336029223    9.79872125630855   14.13016349404566
H         8.80694509536747    9.93758214224625   13.21136742684496
C         7.51975756821171   11.70414081865552   13.14997400128357
H         6.77750940440637   11.43921942615175   12.39792402446560
H         8.32287233111985   12.27368847766154   12.67088798664179
C         5.86540979454478   14.33023442618856   12.37592934295098
H         6.39153959330999   13.62076301801748   11.72448606552103
C         4.38578532642111   13.90550236998654   12.49837021661223
H         4.25314193593849   12.89741646971105   12.10514568218046
H         4.04312030359121   13.90117930475412   13.53258802456979
C         3.59244097760607   14.92390022050245   11.66565155296625
H         2.78695247209438   14.45229480282208   11.10500083899968
H         3.15087048422623   15.68082851055586   12.31579216607038
C         4.62886733144029   15.57854162783808   10.75403019134938
H         4.30041505431077   16.54512974519670   10.37642590749685
H         4.84458974275507   14.92922072069200    9.90404273929709
C         5.85681188428082   15.68423349515373   11.65145425636514
H         6.77810951942783   15.85158601393197   11.09441599501258
H         5.72851755031260   16.50744099185595   12.35304103262801
C         5.85862243899368   15.01217014125650   15.28708479471563
H         5.01323961728814   14.33754986526773   15.47264766415431
C         5.34343446975278   16.42567519076312   15.00534872884596
H         6.14405534895463   17.02565373471883   14.56617249881834
H         4.47972407078850   16.43739043066037   14.34195129736418
C         5.01642348224063   16.95147382566111   16.39861107629533
H         4.90872666128420   18.03470789639485   16.42105328745151
H         4.08247847028770   16.50725943572188   16.74898429499794
C         6.19051902899862   16.46622396433351   17.25120963479373
H         5.89306204238129   16.29451788221147   18.28466225601035
H         6.98325135947547   17.21382479869861   17.25154322047452
C         6.68589118845264   15.17289984556553   16.57775955530117
H         6.56906402150347   14.30901517810831   17.23039665278738
H         7.74895559403059   15.26681644403133   16.33529615658239
P        11.06610725773797   16.24967737015600   13.84722968998111
P        10.88479014235479   18.34298383306068   13.30733781655479
P        12.06170006058258   19.35863749856821   14.86429739547103
P        12.89603360774150   17.80125750108544   16.18445508367446
P        11.37950585351660   16.21141566327117   16.02434970199356
P         6.89153198188367   14.32720413531578   13.91607178660220
Au        8.95823690165766   15.32144164298985   13.80334656215708

