99
CSD_code = HOBHOV | q = 0 | S = 0 | Stoichiometry = C36H58O4Zn | MND = 4
Zn        2.44503378235126    1.29578814319445    4.66344110755547
O         3.29243827494070   -0.22080697277117    4.15902747567867
C         2.92129557492435   -1.28126321163259    3.42846653078782
C         3.38257497103388   -1.41411035249350    2.08981473154695
C         2.86999404797099   -2.43361515199450    1.30177737191575
C         1.96515488339945   -3.34775750700549    1.80063993989044
C         1.63707713852135   -3.30714944301778    3.14011590856818
C         2.12037701542697   -2.31672245226854    3.98138359435598
C         4.44530210473809   -0.48001154231715    1.51250868481016
C         4.98983808101386   -0.95432242393873    0.15741932643349
C         5.63996903362539   -0.43646018701395    2.47511625111198
C         3.85608531129545    0.91864706402886    1.29909386572216
C         1.81636744780056   -2.39207394015749    5.47769829280126
C         0.86384972120673   -1.26715730542595    5.88835150322286
C         3.13527163036639   -2.30003275006207    6.25495237123487
C         1.15116235334020   -3.71218050004614    5.89396591174241
O         1.86611202888336    2.27546582422587    6.07946732697098
C         1.48078851575390    1.91667549895590    7.31714241919967
C         0.10219715206587    1.90079408893069    7.65516939416185
C        -0.27935718424909    1.32528600742620    8.85745519150665
C         0.64987278086589    0.83882302867602    9.75334415338565
C         1.99188927307619    1.04254603270150    9.50601013320271
C         2.43483142426415    1.61584193870305    8.32413853721020
C        -0.96522915509513    2.52245624270613    6.75354084797847
C        -0.49732113420676    3.90555378012123    6.28059310864980
C        -1.23301858074211    1.61421975714902    5.55088844091057
C        -2.30093571025949    2.73614704510865    7.48042817713004
C         3.91697877295076    1.95964824231490    8.16818787443328
C         4.59980964220868    1.00698563632655    7.18423446667754
C         4.68912220205048    1.86861262889447    9.49312092878172
C         4.03862138627880    3.41292509489514    7.68997986234419
O         0.98985930262686    1.50124278101400    3.01522496120785
C         0.34618485743277    0.40235945086884    2.35449830858034
C        -0.42602217465456    1.00080240518779    1.18357817598966
C        -0.77366893032543    2.38689370103763    1.71896791754636
C         0.49349046758033    2.73299980947641    2.49266952977391
O         3.69542142124212    2.98834900935935    3.95998501315404
C         5.12464005361168    2.97552553260704    4.03294207214920
C         5.56537187806215    4.37207988420514    3.61418384299542
C         4.46328726389037    5.22221526565124    4.24047926523672
C         3.23300916162414    4.34096023735435    4.03124199978553
H         3.16978792827198   -2.52795401219609    0.27147588728510
H         1.55405431286807   -4.11426670973084    1.16019890042963
H         0.98725847487992   -4.07520912930724    3.52423112460038
H         5.37190439002481   -1.97027749470633    0.22152586378330
H         5.81113746962087   -0.30389295646235   -0.14008431672911
H         4.23284681091265   -0.90615915513438   -0.62241825074331
H         6.08734528071857   -1.42593948224032    2.54617012357080
H         5.31937065146750   -0.13854306283200    3.46765421666626
H         6.39807807516265    0.25795177496148    2.11363826374449
H         3.46105205101180    1.31484799496381    2.22814498097402
H         3.04840637274503    0.87265162251837    0.56958506636827
H         4.61907064689454    1.59905269474450    0.92201640276381
H        -0.08719539674227   -1.37476935481861    5.36970581269741
H         1.28454573098507   -0.29177740254548    5.63943250846845
H         0.68373668897570   -1.28337750112668    6.96151922826052
H         2.93934288337151   -2.22929788823180    7.32339490725431
H         3.70068592528697   -1.43090848018622    5.94130561047679
H         3.73804498776507   -3.18659427314738    6.06637595123949
H         0.15045806539170   -3.80979360012229    5.47889272687874
H         1.06229474498824   -3.73053790897727    6.97871133157955
H         1.74979459083271   -4.56756348613660    5.58999552956374
H        -1.32256061671411    1.24011310119893    9.11207946235522
H         0.32947172602598    0.35413732523787   10.66409468233186
H         2.69772860231339    0.73935857911909   10.26105839181105
H         0.45335223766073    3.82503961572950    5.76527494426679
H        -0.36887407018004    4.56605992012986    7.13574843369554
H        -1.23203039619873    4.34694496241641    5.60777744653230
H        -0.32236430339787    1.48015016125271    4.97844732219659
H        -1.99725844238551    2.05169992150253    4.90894269993731
H        -1.57925879497530    0.63965489105142    5.88893783074614
H        -2.15914482144224    3.29204451969117    8.40418681073855
H        -2.79385649216279    1.79306413256295    7.70375812608113
H        -2.96705405529812    3.31060411258492    6.83812907997997
H         4.11984188942122    1.04126292865938    6.20471036720287
H         4.54233244453252   -0.01263723894620    7.55687189912209
H         5.65055925105833    1.26987588074790    7.06398708577007
H         4.21431600279081    2.46934452317098   10.26530211168995
H         5.69873893480479    2.24800927136134    9.34205270725637
H         4.77352731287702    0.84181996600700    9.84021338170213
H         3.50565519804336    3.54554411031173    6.75638822940581
H         5.08570064407341    3.68135690344871    7.55107961913674
H         3.60491152727543    4.08340979612774    8.42975039450315
H        -0.33324417933812   -0.08192649537280    3.06569376913927
H         1.10655460264916   -0.31831864284351    2.04957027074316
H         0.21536439821870    1.08356951708031    0.30561706284978
H        -1.29944469213782    0.40704820323830    0.92736344240204
H        -1.62689208959677    2.32801782242254    2.39449339498463
H        -0.98744254142636    3.11043155321234    0.93609471415020
H         1.25022550050029    3.15960914938804    1.82116789369947
H         0.32078273194616    3.41650349330563    3.32548841754747
H         5.48317225051295    2.18147650142522    3.37922618924657
H         5.43720849041781    2.76748528410071    5.06179687368640
H         5.55113316663301    4.46860187132735    2.52781790342487
H         6.55844853128453    4.61845748804170    3.98095089862814
H         4.65501381067200    5.36279358398057    5.30404028421875
H         4.35051383110730    6.19579834056863    3.76955629635824
H         2.50455299995962    4.42695350335208    4.83887252812430
H         2.74067263822135    4.57751886327763    3.08024234888150

