40
CSD_code = HOBJIS | q = 0 | S = 0 | Stoichiometry = C14H21Cl2NbO2 | MND = 11
Nb        1.05694887682183    1.88245098713798    4.56397524922317
Cl        0.30677264457823    3.36827771487495    6.31203201516827
Cl        0.67022819620246    3.67976072716972    3.12031734414671
O         2.34088155169311    1.00144633466400    5.99784102855340
O         3.34955488123314    2.72561105563800    7.08672452778411
C         0.44692484477689   -0.50252516421928    4.51233382997057
C         0.43838445186377   -0.08491488091363    3.15350051970728
C        -0.59976298385886    0.87923668122666    2.99780440196897
C        -1.19998839675368    1.09529852215960    4.27386632826717
C        -0.54642172546244    0.23788760585406    5.20030012254471
H        -0.85698412212556    0.06853701871463    6.22453178480289
C         2.80589625040441    2.20057753918546    8.29403257857491
H         1.71500133146829    2.27805326522499    8.27426277618035
H         3.21668514084448    2.81331354808667    9.09220599565020
H         3.09819077788394    1.15530742370153    8.42103118646669
C         3.04675835156448    1.77971418579778    3.58511383199931
H         3.53899907132772    0.80832255547805    3.70820282154988
H         3.28861877403411    2.23040788029190    2.62341601641236
C         3.23822549613872    2.69200439642824    4.71064757933386
C         2.98812949390844    2.10221326994527    5.96488983987051
C         3.82879317573335    4.06671051208735    4.58160114653884
H         3.44850575012519    4.54604292106922    3.67871499391573
H         4.91691795499691    4.01046380866731    4.51645804236461
H         3.56192461350434    4.67203739539615    5.44730095138082
C         1.24404682973932   -1.62638151074798    5.09049699922368
H         0.77443195731343   -2.58130791704364    4.84531804463822
H         1.29823120300763   -1.53064929412507    6.17327680621511
H         2.25941878872793   -1.63383932915750    4.69584886504289
C         1.20496532722029   -0.71356021659388    2.03157905659722
H         2.11988287673735   -1.17538251007219    2.39559358520823
H         1.46426516122696    0.02750290691764    1.27784053937957
H         0.59869637445964   -1.48673927014582    1.55547546273901
C        -1.08749884976701    1.43127600860310    1.69630890555058
H        -1.78442052282058    0.72800057199415    1.23598958650630
H        -0.25899817835838    1.59719305767511    1.01029626897223
H        -1.59941057191892    2.37962007625681    1.84640074445802
C        -2.42210272650413    1.92025365338004    4.55062690887023
H        -2.35783924871525    2.88821144924329    4.05013040049704
H        -2.52513993203815    2.09364938526328    5.62144473688352
H        -3.31491288920862    1.40481763488360    4.19046817684413

