109
CSD_code = HOBKIT | q = 0 | S = 0 | Stoichiometry = C42H60N4Si2Ti | MND = 6
C        -2.05225612667791    4.38581061261608    2.66262094270606
C         1.04137501902347    3.93591440366339    2.42662577575329
H         1.80548895753384    3.38675672203364    1.88383979390124
H         1.01817171202373    3.55097079114344    3.44111504759939
H         1.35609923307042    4.97361704661734    2.47026421572444
C        -0.59607957348137    4.80138528277694   -0.04507971033131
H        -1.49217489771951    4.66832683134211   -0.64413817499837
H         0.25391105573235    4.52147350742229   -0.66042929234128
H        -0.50546710236534    5.86150632697557    0.17754385756152
C        -0.87548637369740    1.92175145278005    1.08016362854090
H        -1.14739407712250    1.31770931547780    1.93958115589923
H         0.04524723929944    1.51721882907631    0.67066228431139
H        -1.64772528768790    1.79290560464726    0.32866749016794
C        -2.27583857483160    7.79912598098997    2.20828293398307
C        -1.68154012134398    8.93433576285550    1.61283188690802
H        -1.10486031630168    9.60851452855485    2.22918357499714
C        -1.84497270649884    9.13702879679983    0.26361773802631
H        -1.39903532309473    9.99701235896691   -0.21505199106928
C        -2.59744618502732    8.22932575638270   -0.48692232940510
H        -2.75740241706191    8.38182478028883   -1.54168621457245
C        -3.11553839583019    7.11723984679360    0.14712452075085
H        -3.68417159029118    6.37413136221360   -0.40356674051837
C        -1.77702181298493    8.30533876437532    4.50551332866543
C        -0.62150605533004    7.93385701640230    5.21839811505356
C        -0.16397550049718    8.74537198768199    6.24294594321545
H         0.71691912897164    8.46548169521083    6.79903543085334
C        -0.81794725138959    9.92105202163154    6.56420033465831
H        -0.44363525806953   10.55155911810915    7.35721549866723
C        -1.96004174641290   10.27672739456452    5.87560031105900
H        -2.47653259093845   11.18586547419616    6.14627172311254
C        -2.45911808485037    9.48558279617047    4.84986417145292
C        -3.75858481161430    9.87686614091376    4.18172325691164
H        -3.99097199816991    9.14306764447383    3.39909052262664
C        -4.89678696573761    9.84615425978360    5.20681771592831
H        -4.97960993788847    8.85564002487457    5.65206079816814
H        -5.84342988578947   10.08999416950922    4.72932251516913
H        -4.72132298464308   10.56565472926291    6.00316165093498
C        -3.66209902376847   11.25516751575949    3.52441278300101
H        -3.41942969333134   12.02014068412234    4.25789975511271
H        -4.61103946975009   11.52002738698691    3.06175133749229
H        -2.89380241381581   11.25922232539086    2.75465274698474
C        -0.58520792109080    5.52837840448274    5.75987157208876
H        -0.45659207394372    5.76322223754503    6.81583461507513
H        -0.11800810769144    4.56916022468605    5.55272861575861
H        -1.65243322496985    5.45000272849826    5.52917534835409
C         0.04989558054140    6.62051708348717    4.89216206428067
H        -0.16685305426415    6.37608196594327    3.84195064747620
C         1.56521050385019    6.65075163338029    5.08650938269832
H         1.82712806945534    6.70587292058881    6.14049212703554
H         2.00280017819335    7.50493128920385    4.57416527763832
H         2.00607073520818    5.74260130781150    4.68312244313560
N        -2.25013710779009    7.45468379508831    3.49925286721920
N        -2.94475560821508    6.88059463364599    1.44578022562527
Si       -0.66509678740487    3.76761228534744    1.56613335224594
Ti       -3.38719032254625    5.86675930449725    3.16389825020840
C        -2.77206851604434    3.97027498035453    3.66540073655662
C        -3.92915986765798    1.06614217671408    3.90128049642727
H        -3.83593657061309    0.12989787746358    4.44424117050586
H        -3.58394538186833    0.89358822386757    2.88690440408152
H        -4.98512256674386    1.31259009100482    3.85731734129191
C        -3.86017693575237    2.91703794903144    6.37306081738360
H        -3.29704426670714    3.62667489795800    6.97215208044793
H        -4.04271231286231    2.04095979091779    6.98841824682610
H        -4.82363601967060    3.36846486038679    6.15028162702624
C        -1.22653437170887    1.71940362865720    5.24797242278675
H        -0.56677472542078    1.65444837583394    4.38890333988319
H        -1.33644550400663    0.71909268704935    5.65585381847406
H        -0.72978749872204    2.32283813386215    6.00079991318707
C        -5.61635691460527    5.87049991418084    4.11949977075019
C        -6.89662834433492    5.92339681299851    4.71495035255170
H        -7.76881921787363    5.76105841528587    4.09859465998106
C        -6.99045301288325    6.16625782468430    6.06416650445180
H        -7.95818881448874    6.21001978257834    6.54283853483761
C        -5.82812690526359    6.36408317960650    6.81470970895999
H        -5.88022197831326    6.57883612255561    7.86947709657089
C        -4.60598506481672    6.25675984282964    6.18066168103080
H        -3.67811939284635    6.37766360020871    6.73135539003258
C        -6.30418061784064    5.69167814574657    1.82227979254847
C        -6.56024697485049    4.50524934824974    1.10937507727478
C        -7.49181386852963    4.51480361126152    0.08483600919297
H        -7.68988180782293    3.61199473433817   -0.47126964399712
C        -8.18298231550889    5.66901559235093   -0.23639293272113
H        -8.91618415342030    5.66012743771174   -1.02939898791307
C        -7.91995131677025    6.83591534863084    0.45223834178689
H        -8.44905084354397    7.73778431943461    0.18160239301835
C        -6.98525616133799    6.87252354452778    1.47797018485666
C        -6.67439335921643    8.19351133990161    2.14616311378647
H        -5.92272205725995    8.02783557282525    2.92879833563874
C        -6.07868016596423    9.16390335662382    1.12111335948893
H        -5.17944106074376    8.74039643201377    0.67588280386996
H        -5.81655685780846   10.10562999962464    1.59864108502455
H        -6.78950007570918    9.37170953617952    0.32475697863066
C        -7.91628579652371    8.79907415831380    2.80348883106512
H        -8.70009235422455    8.97145457989713    2.06999888061531
H        -7.67118925671214    9.75327986458986    3.26621149169860
H        -8.30396478325156    8.13569451938164    3.57320217177389
C        -4.49517589881449    3.27107750640283    0.56791924359763
H        -4.76283700735758    3.27719183489479   -0.48805046209051
H        -3.89812875763762    2.38681265113754    0.77502914817580
H        -3.89364858567324    4.15608887687953    0.79869234377140
C        -5.75857116792157    3.26711803285404    1.43558928854873
H        -5.43853430297414    3.33257849894772    2.48580993120117
C        -6.54240933240754    1.96994110296882    1.24118946037107
H        -6.72106088855123    1.77069700993851    0.18719466871414
H        -7.50096527353427    2.01805609244592    1.75349840822878
H        -5.97636816240746    1.13406293497354    1.64457916349476
N        -5.33091597719010    5.67605573249324    2.82852438862620
N        -4.48643142880565    5.99054943240725    4.88200451503460
Si       -2.93033385744357    2.45987281997324    4.76191738114320

