56
CSD_code = HOBNOE | q = 0 | S = 0 | Stoichiometry = C27H21ClNO3P2Re | MND = 6
Re        2.86661332710669    2.92881584679540    0.69157015503545
Cl        2.51845313253662    5.24844431968447    1.05471721492958
P         2.32438684706867    3.26655984929132    3.06418330446911
P         4.76708478985313    3.80133252324578    1.98708402923946
O        -0.05323173181911    2.58500259146549   -0.26361426343902
O         3.47764128463263   -0.10141179548225    0.58337835005079
O         4.09913384064185    3.50135163497025   -2.08487691454661
N         3.82969034729090    4.02358096955657    3.41335236525026
H         4.27051136697459    3.81535636882244    4.30535464843996
C         1.04381217261897    2.67140408693302    0.04488433821012
C         3.25267703602928    1.02821848627972    0.62848735763988
C         3.61459766740467    3.23725567520475   -1.08441668627281
C         2.25400232563911    1.97635651484003    4.35512507765279
C         2.18148225909789    0.64010387116221    3.98851791511553
H         2.14810912357933    0.38184081010466    2.93799268845343
C         2.14743404160621   -0.34165019448381    4.96341028983857
H         2.09035822683169   -1.38137151042126    4.67811565693672
C         2.18432815191460    0.01202375784530    6.30174186019434
H         2.15614095472707   -0.75315859413669    7.06325399524699
C         2.25166702472345    1.34740203978765    6.67003716913131
H         2.27419507153159    1.62030134415479    7.71511190364754
C         2.28397609330729    2.33069432370441    5.69988755604360
H         2.32235547969371    3.37657634172060    5.97970014559240
C         1.06336169410693    4.40950505107549    3.67768600169167
C         1.36326400042993    5.62731588466452    4.27014219157023
H         2.39376268229161    5.93571305052215    4.37653402295088
C         0.33593982807984    6.44705496705890    4.70030433494505
H         0.56393379949583    7.39821207508252    5.15934823172519
C        -0.98238099229385    6.05578093441135    4.53385524334478
H        -1.78082121812163    6.70337553276241    4.86485391551330
C        -1.28135883911989    4.84203373466872    3.93451024484658
H        -2.31021953860270    4.54428693803701    3.79654686351059
C        -0.25950680078576    4.01740396717385    3.50537149605983
H        -0.47140526574471    3.06924653053436    3.02536482629915
C         6.17291532982002    2.82460847656392    2.62410592524848
C         6.98577086611653    3.34439915422387    3.62619624687277
H         6.79861644528616    4.34142775816259    4.00670354856201
C         8.03369388104856    2.59158660648190    4.12025264946844
H         8.66685059335152    2.99378960343545    4.89774857420819
C         8.27535828510420    1.32327411667131    3.61379701300007
H         9.09732347092987    0.73937582755988    4.00062682382605
C         7.47084831898935    0.80713885917049    2.61187823531901
H         7.66277305863504   -0.17852946736597    2.21526048595361
C         6.41908910327201    1.55745690801581    2.11546771575074
H         5.78409595601917    1.17181177682788    1.32839890405871
C         5.58475369852885    5.39023409459503    1.70522234520866
C         6.53511664658387    5.42536255060194    0.69039377770128
H         6.74847458732727    4.52056541002605    0.13367688553813
C         7.18571645401873    6.60895678924734    0.40033002576904
H         7.92089479264506    6.64176343731084   -0.39009973225107
C         6.88651246954576    7.75514652132178    1.12059486939623
H         7.39191635228520    8.68163595421872    0.89107088686214
C         5.93398497126114    7.72013501841442    2.12570370920840
H         5.69582545806053    8.61835262501861    2.67679842995421
C         5.27648079952175    6.53931580517071    2.41850420348831
H         4.51310027885626    6.50923424718614    3.18255294749572

