37
CSD_code = HOBPUJ | q = 0 | S = 0 | Stoichiometry = C10H18ClNO5PRh | MND = 4
Rh       10.68530590541360    6.40764738038282    6.54892121513222
Cl       11.48512776813555    4.47484582587130    7.28563829654108
P         8.99979379887162    6.74370386356563    9.73678973408798
O        10.46087991437235    4.97002415093472    3.95186103395759
O         9.76236877571640    9.04627157233028    5.47930014933987
O         8.51275578958675    8.10968101010218    9.95850245263258
O         8.40307903631519    5.67238626692173   10.77004726491055
O         8.63282225234197    6.09935632540975    8.31341918969300
N        11.26914595262284    7.27600689289443    8.47331881635323
C        10.51008727315306    5.56544096148459    4.92508613466943
C        10.11299359141542    8.04079986804826    5.90842289134167
C        12.71348551416172    7.42631979146764    8.70470881952040
C        12.84680648622752    7.74936492842877   10.20267904345284
C        11.56322943202913    7.17456058428729   10.83182437936928
C        10.81827916943410    6.53503393932829    9.65679588685922
C         7.79701700651780    6.10431601403024   11.98287738575777
C         8.77292306641154    6.03047085988331   13.14411711189663
C         7.25396907866572    6.02499111405512    7.94564219747395
C         7.17722180426835    5.69180483051994    6.46787253017728
H        10.84643923891540    8.20612594213039    8.56319215864561
H        13.13264724140081    8.20056760441806    8.05954153073142
H        13.19069718129546    6.46936656258489    8.47402367759601
H        12.90693775860214    8.82592081845571   10.36206701444268
H        13.74229288953316    7.29661186992602   10.62302200600806
H        10.95179961007558    7.97316068410551   11.25947817022338
H        11.77694463433378    6.44647940153007   11.61209204998228
H        11.07470056715126    5.47904255453365    9.53286453169021
H         6.94976565966766    5.43343313678303   12.14944736473328
H         7.43106007747558    7.12806274719794   11.85443131911647
H         8.25311874570580    6.25249601205844   14.07202436347323
H         9.20287109434835    5.03410613428314   13.20738847865127
H         9.57385241924334    6.75234146393849   13.00702280670670
H         6.77394858902033    6.98660019771522    8.16398754987561
H         6.77396719833815    5.24414916751667    8.54600929607968
H         6.14342812466821    5.54080278470256    6.16980674424739
H         7.60541976338094    6.50327369505825    5.88032556939796
H         7.74341759118574    4.78223304311634    6.27455083523249

