52
CSD_code = HOBPOE | q = 0 | S = 0 | Stoichiometry = C23H22BrCl2FeN3 | MND = 5
Br        8.78111542467336    1.75113190476513    9.24199304300157
Fe        8.72495747786671    3.24897552490862    2.03774451332485
Cl        6.77300498059988    2.67902011683987    1.55804768496711
Cl       10.14389325909820    2.04804835766666    2.91418572198867
N         8.29125761896758    4.22313612790869    3.72542076565296
N         8.62224183346993    4.87919095923627    1.38495192991193
N         9.38198659974083    2.87089936424911    0.22543791609798
C         8.01940686025230    5.48528152917986    3.52743181952800
C         8.19960798534282    5.91308044671206    2.17305162941914
C         8.03670135585073    7.19050737182652    1.64898148287161
H         7.69600167462158    7.99213946937653    2.28397501843909
C         8.31605666582853    7.41806858292045    0.30916806940414
H         8.19670611272798    8.40484012518346   -0.10900152380189
C         8.74665350807518    6.36968458105774   -0.49069315290635
H         8.96802384530359    6.52889971597880   -1.53349203203925
C         8.89181532609949    5.10189812813524    0.06246320122561
C         9.31881817863470    3.89736519489198   -0.58377731860798
C         7.58546119607969    6.43588238323214    4.59945012285797
H         7.54967592299688    5.93610850306634    5.56423298443255
H         6.59479164666150    6.82438677425695    4.36583285560460
H         8.27080189567094    7.28008600076731    4.66152118452928
C         9.60363853155386    3.85470315024414   -2.05232631779140
H         9.69438151409848    2.82787534763586   -2.39659220544781
H        10.52908482175673    4.38420757173375   -2.27758217796636
H         8.79451345066605    4.34087195891542   -2.59405681874697
C         8.35591195355937    3.69046640739019    5.02668305772726
C         9.55675606323289    3.83365654928386    5.73709704397668
C         9.67213321243845    3.24807315072078    6.98750592216392
H        10.59292957376426    3.34042860979149    7.54263434435428
C         8.60734662260020    2.54583211667443    7.51853891768569
C         7.41324045356302    2.42576844674116    6.83496390889266
H         6.58776664393984    1.88713384063950    7.27470415142369
C         7.27150448968415    3.00013190435556    5.58028834632630
C        10.69657668503718    4.61184303340889    5.15721861392523
H        11.57531544708137    4.52744227224435    5.79011136730707
H        10.43596908011924    5.66583114251041    5.06141783306164
H        10.93658204509903    4.23192781893029    4.16487155306418
C         5.97493973948459    2.89615973559019    4.84567117767493
H         6.10191682643565    2.31064444386394    3.93663627710050
H         5.62280228508921    3.88126772904605    4.54260927620895
H         5.21721645691997    2.42435789116730    5.46511666213327
C         9.86365826284865    1.62299481106432   -0.18177401532930
C         9.07944893397010    0.48681843097583    0.00887938205725
H         8.08880256579939    0.59616353520611    0.42467064248546
C         9.57032537920796   -0.75637169889159   -0.33854009462629
H         8.95444054925026   -1.63109093716369   -0.19303937554995
C        10.84604723140674   -0.88514243947730   -0.86426094739977
H        11.22790549212576   -1.85970370578840   -1.12833736519745
C        11.63474266896787    0.23973113344659   -1.03731398911062
H        12.63560613546258    0.14514765977780   -1.43196537163213
C        11.15036722111596    1.48983165506263   -0.70260998386359
H        11.77225029516540    2.36656727275557   -0.80864573080337

