55
CSD_code = HOBPIY | q = 0 | S = 0 | Stoichiometry = C24H25Br2FeN3 | MND = 5
Br        5.45469765626296    5.31900774919615    4.42887845540925
Br        3.20960685247434    8.15053448273868    7.16174861712519
Fe        4.09058701504834    6.46779492654874    5.90082486294425
N         4.91727241393315    5.68705622918237    7.52869857277887
N         3.04077378339676    5.04671784617425    6.04880265778617
N         2.84060801992505    6.89294239236821    4.47355440788991
C         4.49643015293700    4.46864863699902    7.74558613057097
C         3.40259675375185    4.05990605088282    6.90245548239699
C         2.70116910660626    2.85645760630610    6.92843956754933
H         2.99761959110036    2.07155144546256    7.60434347617350
C         1.62429231829515    2.68765085067152    6.07051955515017
H         1.06292813058197    1.76658870517093    6.08600173919892
C         1.28445532932022    3.69035009751774    5.17464631442341
H         0.46903572002080    3.56010379054180    4.48246737583151
C         2.02929344465799    4.86784468859984    5.16613853416593
C         1.91697058280967    5.99468682761070    4.27629211841404
C         5.08847111415045    3.51728389526211    8.73469029348624
H         5.92110387143995    3.97615775758057    9.26080942809577
H         5.45102585794197    2.64242299256788    8.19435601191891
H         4.34656128589423    3.18240998950160    9.45714787615826
C         0.87728624847840    6.03956137425027    3.20388554901151
H         1.07861377353353    6.84646300128100    2.50397411646255
H        -0.11155329834162    6.18502882265391    3.63823839142107
H         0.87420759161955    5.09410988459368    2.66375408541244
C         5.67570794738205    6.37026012320772    8.48638509929139
C         5.22211337340294    6.46157410865081    9.81368305928540
C         5.99254875233040    7.15204938328446   10.73951877656212
H         5.63632562164053    7.21232038030003   11.75815227271218
C         7.18102105057927    7.77075527367663   10.39606903059296
C         7.56314217735808    7.75015396205690    9.06044748693810
H         8.45638896243825    8.27811162073709    8.75857136528261
C         6.82185834302486    7.08634295649391    8.10173276107964
C         3.89512906946608    5.93176874361336   10.26974139444221
H         3.23895307956032    5.70120099653525    9.43442828451103
H         3.40658146718054    6.68792026243497   10.88130814390005
H         4.01581831121007    5.03620364099573   10.87953310645933
C         8.00932039762517    8.49468065898830   11.41158378403268
H         7.65476520336067    8.29321775109026   12.41916428989494
H         7.95934369288919    9.56926355262275   11.23717582864765
H         9.05318234349429    8.19396118252994   11.33795902600644
C         7.22465723313357    7.16380606400674    6.66468020978446
H         8.09320559735093    7.80551434784073    6.54303282083897
H         6.39955053902265    7.59078205395290    6.07619536270590
H         7.45799136385081    6.18142603848883    6.25888233892564
C         2.87833530717341    8.12841801094752    3.83147717247894
C         4.08500796237809    8.57528837955584    3.29318866349931
H         4.94798803534480    7.92590646752264    3.30999147906208
C         4.16334474067934    9.82844857899069    2.71829064129843
H         5.09874072525938   10.16153865418763    2.29425316356769
C         3.05296748736446   10.65672892047578    2.69157517458416
H         3.12016267020781   11.63867277612857    2.24830819646999
C         1.86045803566944   10.22719587540402    3.25002144014822
H         0.99769994462190   10.87641739930691    3.25149139344792
C         1.76585579129459    8.97079066853792    3.81552699562571
H         0.85058145787311    8.65020112377114    4.28927761815501

