53
CSD_code = HOBQOF | q = 0 | S = 0 | Stoichiometry = C24H21BrCl2FeN4 | MND = 5
Fe        2.15965587833797    1.92588589300098    2.29160918797879
Br       -0.35896983343795    4.66543472708411    8.63567850515930
Cl        4.00920567869623    1.18500062570106    2.91703826799906
N         1.08925793207156    1.25924749168034    3.83121300700264
C         0.62451393112568    0.05385340493812    3.64486622568885
Cl        1.58088706391632    3.88077139955916    2.52897080928915
N         1.58323076393680    0.42363796060105    1.57893484188386
C         0.88935140114526   -0.47521384650868    2.33938902461342
N         2.79547413417788    2.21677383967782    0.44398240659010
C         0.49576281520731   -1.70034168171553    1.81612571362092
H        -0.04405765967283   -2.40004844391028    2.43317984556545
N         5.57833326218592    8.04476817587079   -1.45050636004123
C         0.80511197644949   -2.00974951011923    0.49819449013328
H         0.50365075373185   -2.95671273851734    0.07987959261101
C         1.50487387889315   -1.09729441554151   -0.27529531500079
H         1.75262609696792   -1.32038292356453   -1.30026491084801
C         1.89129059745563    0.11870383152551    0.28163817431461
C         2.61378632811523    1.18424611126645   -0.34192567811235
C        -0.14875499794664   -0.72284876602354    4.66370193844253
H        -0.28052247493458   -0.14015889097540    5.57193594446561
H         0.38390543816167   -1.64144335268863    4.90703704754388
H        -1.12740124454708   -0.99634192949398    4.27168443742246
C         3.14028322694189    1.06439949497140   -1.73724605718679
H         3.83026983277707    1.87332866036936   -1.96205442431486
H         2.32233714413989    1.08919621310965   -2.45702642941857
H         3.66067436395849    0.11514290622160   -1.84975640711775
C         0.75372249792096    1.99647580486150    4.98306106447831
C        -0.45059498414324    2.71482480032949    4.97409719051590
C        -0.76735513399708    3.50936930767550    6.06403034956067
H        -1.68593009616358    4.07559218607106    6.06882903109970
C         0.09571364346070    3.57460689901825    7.14126828702229
C         1.27103717037567    2.84908918346532    7.16472086410551
H         1.92414525544658    2.90209834310884    8.02227792302481
C         1.61427255263301    2.04809127271993    6.08549075321227
C        -1.38538856220318    2.61872154064264    3.80855494798811
H        -2.19440892804822    3.33619553454082    3.91033779188602
H        -1.81388284605295    1.61869916013137    3.73960901718443
H        -0.84774070224968    2.81998063791311    2.88248286415936
C         2.87380791894043    1.24517537629597    6.11259491449461
H         3.57153150057272    1.61334411338417    5.36229162994504
H         2.67320947512538    0.20128565005853    5.87611895250551
H         3.34654711323845    1.30271784386557    7.08900875767433
C         3.39214987326832    3.39978107423448    0.01445650772731
C         4.48891426610076    3.90896622136457    0.71350241212395
H         4.88584733439847    3.34641073275899    1.54536892217048
C         5.05373355650323    5.10817778027318    0.34077879593719
H         5.90537633972002    5.49974028768931    0.87636371035678
C         4.52236813026428    5.82676639336619   -0.73285366580439
C         3.41405458460023    5.33127346782146   -1.42136464459741
H         2.99672025424952    5.89741914239697   -2.24097765474719
C         2.85644406003894    4.12654569528340   -1.05201452479474
H         1.98326866642507    3.75032355634893   -1.56395284135874
C         5.10346077171930    7.05367375786008   -1.12306523415641

