56
CSD_code = HOBQEV | q = 0 | S = 0 | Stoichiometry = C25H24Cl2FeN4 | MND = 5
Fe        5.03445467079447    1.73899619280186    6.50387477656026
Cl        3.51576583911323    2.31680730543236    7.81718447304865
Cl        5.24037347790726   -0.16205673412263    5.75593245005108
N         4.22899451311392    2.46985337959657    4.84649121972164
N         5.86591735526368    3.28910337415317    6.47577435958319
N         6.30874025113946    1.41735416892959    7.98400111545629
N         6.82438244759892   -4.62480259984710   10.90144066999621
C         4.56401118376245    3.70933711037573    4.61908048732431
C         5.52319343844686    4.23251706118329    5.54836676505351
C         6.11296922125902    5.48908833327984    5.55574936806832
H         5.82555066166621    6.22233839589995    4.81981533814818
C         7.07116525478789    5.78716920419337    6.51719903269491
H         7.53854236212964    6.75887675999280    6.53189432106088
C         7.42046401884771    4.83192576646255    7.45717277767435
H         8.16183438400549    5.04556121370466    8.20992763718448
C         6.80499973796487    3.58257261038895    7.42652066247183
C         7.02299732832764    2.47115346746966    8.29790652146306
C         4.04503468839909    4.53216661637618    3.48148744830991
H         3.37174228544504    3.94420634813344    2.86275165816976
H         4.86779478448141    4.89573204593541    2.86747133610318
H         3.50682424621824    5.39640713882318    3.86918914117294
C         7.93976761279681    2.56349026868255    9.47728880594178
H         7.80250777319237    1.71341477416093   10.14047774365719
H         7.73289682129914    3.47860149334550   10.02883111137187
H         8.97975817083467    2.59167342659699    9.15251242988920
C         3.45376285972343    1.75038305951216    3.91308188882477
C         4.11659729142867    1.14684333080618    2.83545786537483
C         3.38432488401349    0.37537196664097    1.95058127906359
H         3.89312146816683   -0.10010666828025    1.12424262634971
C         2.01560192498846    0.19441546761868    2.10051285164789
C         1.37863077195474    0.82458343613472    3.15708819020577
H         0.31125646829403    0.70848138896940    3.28053535201235
C         2.07343159146993    1.60547360218997    4.06954615991555
C         5.59042927581988    1.34262292483783    2.64586232857079
H         6.12256139240241    1.10157921503857    3.56564286671306
H         5.81426323874459    2.37843322844705    2.38893813845373
H         5.95777016552337    0.70210986500548    1.84889712303720
C         1.25761248801354   -0.65925058834387    1.12987424717842
H         1.63788036535310   -1.67972451752053    1.15045077239299
H         1.37646415214464   -0.28064258796762    0.11528457786540
H         0.19841617166774   -0.67905241997051    1.37269393584266
C         1.35557375111297    2.29141534883931    5.18802056005841
H         1.67486482451009    1.88795968177449    6.14721221404218
H         0.28107153815818    2.15881434159305    5.09324018983901
H         1.58027213819652    3.35737534281279    5.19822464394798
C         6.43624698425903    0.19339716044538    8.63309609409381
C         7.66714295396283   -0.46690311867689    8.68327497222635
H         8.53449588009338   -0.00532110676145    8.23530732797968
C         7.76428568363202   -1.71361942422509    9.26162472509082
H         8.71372085819455   -2.22753261680800    9.29455164661227
C         6.63113115610932   -2.32044484125999    9.80555132661503
C         5.39727486553401   -1.66731833075880    9.74946600479459
H         4.52184051438704   -2.14382456436502   10.16472128349450
C         5.30154920772525   -0.42505201189089    9.16396983007944
H         4.35288441173788    0.08787438435137    9.10781697893964
C         6.73413819387504   -3.59372807013875   10.40719034856039

