30
CSD_code = HOBVAX | q = 0 | S = 0 | Stoichiometry = C12H10FeINO5 | MND = 6
Fe        8.86135054978989    7.34481062547529   11.87560908947205
I        10.48967334115354    6.41253862670586   13.52002118822484
O         7.81012063353387    9.27653966722353   13.75833998079708
O         7.13100133101259    8.80832052187619   10.09523525856334
O        10.18517499079772    9.77420814441611   11.52308756247859
O         7.62230754743902    5.28046131775941   11.92399915051295
O         6.28947833950208    3.65113136638078   12.67193697889703
N         9.60249070172139    6.16959653247709   10.39111766116423
C         8.22668678315659    8.47678232160174   13.05969990708600
C         7.79323108142175    8.16963537623369   10.77991183182151
C        10.12892458524998    8.61613191445213   11.23113472188893
C        11.14329330087391    7.97857966669522   10.26576418300111
H        11.38565785123233    8.67900060179541    9.46248025601664
H        12.05560102723571    7.82883824953852   10.85520919210694
C        10.66200472260968    6.66867043844446    9.74496187363649
C        11.24913283666492    5.99388094706748    8.68478021192657
H        12.10138205169721    6.42089914958152    8.18124143182919
C        10.72782451609361    4.76944168872833    8.30059831957554
H        11.16630938845983    4.21916498590749    7.48297463987538
C         9.63952860516287    4.25579567923432    8.98702554171399
H         9.21100546702070    3.30259142739145    8.72277449717553
C         9.09980880490010    4.98913083242274   10.03475930682971
C         7.91291951118070    4.46359269669216   10.79223320862794
H         7.03200552278332    4.43773482276989   10.13524001512921
H         8.10176995213848    3.43755728783485   11.13558254088838
C         6.78139461870445    4.72943342201551   12.84182634562892
C         6.59887764223899    5.63045503188319   14.01915960127575
H         6.45076668012377    6.65715482550954   13.68693428936692
H         7.50000377845452    5.59452201069951   14.63220656350331
H         5.75387383764980    5.29449982119234   14.61235465098138

