37
CSD_code = HOBVIF | q = 0 | S = 0 | Stoichiometry = C17H12FeINO5 | MND = 6
I         3.83340595202034    0.67222797776564   17.02924743793474
Fe        3.14716751442553    1.67168739453157   14.82011687265184
O         2.37184401232633    2.29845906642813   12.11658747998509
O         1.06251145660085   -0.30161620957584   14.46302557549123
O         4.18512516890080   -0.43374606133565   13.29520535162802
O         2.89532668361063    5.02966416566160   16.52173003514106
O         1.88428080129456    3.07522358292545   16.06962584173769
N         4.79124101239260    3.04516759090480   14.83325417542186
C         2.68231189040675    2.11258723093272   13.20608752193214
C         1.87526023273057    0.47520003641997   14.64804694329268
C         4.41973326130765    0.54481877151738   13.94551273953821
C         5.86915291687987    1.00039416419131   14.19108138079957
H         6.25555399672623    0.35076364976167   14.98371025915238
H         6.47332124676416    0.81453366117159   13.29808861875082
C         5.95531008754240    2.42737548924697   14.60742478756194
C         7.17123745388283    3.09161342272069   14.72998245594912
H         8.09011890294469    2.55803533684182   14.54651653745314
C         7.17677942161556    4.42246373657858   15.10103139999770
H         8.10537772941677    4.95605996474141   15.23144816407256
C         5.96198955871615    5.06802718605481   15.27890122787283
H         5.92013270599594    6.11463148923207   15.53424500688422
C         4.78703608733786    4.35052354615130   15.11950791135770
C         3.45132114530595    5.04916831418936   15.21008802711293
H         3.57049498639921    6.10672209609515   14.96466926037688
H         2.75120997945440    4.57605090309040   14.50843462535639
C         2.09985610720155    3.99817786975032   16.83441835751252
C         1.50901880931262    4.09086877548053   18.17574095118430
C         1.60857102579090    5.25184484159693   18.94251479870146
H         2.12152854146489    6.11286864869378   18.54350958170560
C         1.04510902585394    5.28808988876294   20.20279096921671
H         1.11778671447478    6.18572981189212   20.79837896929902
C         0.38877819428740    4.17423657680542   20.70592256283792
H        -0.04674083950238    4.20893667937259   21.69340551107594
C         0.29303564952404    3.01739733022632   19.94827774919357
H        -0.21074410089616    2.14963723314315   20.34488397888530
C         0.84808650673905    2.97208263420328   18.68464111223044
H         0.79257016075058    2.07689320383123   18.08534582070516

