72
CSD_code = HOBVUS | q = 0 | S = 0 | Stoichiometry = C36H29F3O2PRh | MND = 6
Rh        4.64159537331787    3.59700020886798   17.20409307886516
P         4.02208615011612    3.89127537691414   15.07311124056994
F         6.74201721221959    2.56567089316501   16.34677045606853
F         5.51683640674748    1.42698611360916   14.98387428893590
F         7.65350109854629    1.33994795367084   14.84339483910369
O         5.35507039366847    3.52037753496396   19.09799627825360
O         4.04060546964662    1.51981117895667   17.46480375532771
C         2.99612866872405    4.53180011411886   17.83293871667887
C         1.80254203802193    3.89464778241683   18.10313693229500
H         1.70565648870826    2.82300135042738   17.98498582302833
C         0.70875768893115    4.63747424051401   18.52965402162999
H        -0.22744810923115    4.13931146242406   18.73902599182508
C         0.81492601618536    6.00839159714608   18.68455245567803
H        -0.04104255867665    6.58066688053978   19.01300656362695
C         2.01218924936406    6.64907334449596   18.42130638001713
H         2.08720717423798    7.71971708130455   18.54347120001752
C         3.11573478690468    5.91913158377641   17.99495688083010
C         4.42601776495402    6.45253678991230   17.64287208973483
C         4.82572635171180    7.77988295571752   17.73931879367302
H         4.14861285652637    8.52471899761600   18.13208561008894
C         6.09517883188968    8.15038773465196   17.33256240200115
H         6.40646018728674    9.18313485605264   17.40476742386234
C         6.97057546933893    7.19939743610471   16.83687653225730
H         7.96304158996238    7.49065553342078   16.52029361198850
C         6.58209254370546    5.86873981604002   16.74806738785119
H         7.29125584955842    5.14212191122033   16.36563874638000
C         5.31236689338262    5.48115763991400   17.14387538464976
C         5.45635645277946    4.11484199860939   13.93795764876637
C         6.60039152904533    3.31875722309208   14.07281524550945
C         7.72111587378427    3.53203337917877   13.28100600004734
H         8.59471712351382    2.91134835838620   13.41026846783756
C         7.71361568325297    4.53143599480854   12.32481841079140
H         8.58901560821566    4.69975765974385   11.71739747261730
C         6.57452038772704    5.29628859493296   12.14587723947167
H         6.55002229356455    6.06108170361328   11.38403978161011
C         5.46339308181269    5.08993822265318   12.94379330670351
H         4.58365708223048    5.69734463985014   12.79457123184442
C         6.62544046182527    2.17661886275395   15.04987426314307
C         3.03858863020069    2.68777521737639   14.10566794041248
C         2.43474956057649    1.62508911130643   14.76575636772272
H         2.60315317214823    1.50491261703929   15.82492340372910
C         1.65171213222621    0.72769922193369   14.06068174112888
H         1.18302134571390   -0.09885584222900   14.57461146136907
C         1.47005906765802    0.88638355909994   12.69731696328883
H         0.86132743451358    0.18470272758917   12.14597042486901
C         2.07254111382631    1.94566098135406   12.03689531978652
H         1.93213259021415    2.06919165179408   10.97272565584679
C         2.85382505287286    2.84696745988463   12.73576217600316
H         3.31914622914956    3.67370199692270   12.21771976087863
C         3.02123907339875    5.39423440989791   14.82826810469357
C         3.58247317218343    6.66868920460059   14.83180503116414
H         4.65573888789373    6.78914900097763   14.84756764878796
C         2.76838938977663    7.78642513957555   14.82925370367131
H         3.21521533411713    8.76969210126388   14.82894162801091
C         1.39098382502731    7.64816815170406   14.84969455594054
H         0.75899971719376    8.52375674413365   14.86067427928783
C         0.82618543464863    6.38406865302346   14.86710688781298
H        -0.24725563371588    6.27038129339419   14.89651735385231
C         1.63555542864944    5.26385682021352   14.86005135203908
H         1.19369690037727    4.27765111610244   14.88919701181000
C         5.33279773731178    2.54977660797500   19.90376744735805
C         4.82083647443789    1.27045960913188   19.68713142377275
H         4.89343193745886    0.56244088087998   20.49857370275607
C         4.22456807859228    0.83303917737193   18.49944606337403
C         5.94396109033042    2.82071652261211   21.26494781558293
H         6.37012973848574    3.82076798604203   21.27746894541809
H         6.71887719223328    2.08927126757267   21.48435254378404
H         5.17522316867528    2.74889706023065   22.03224825262800
C         3.74139663671179   -0.60437481334733   18.46140380256389
H         2.89358017807630   -0.72220380165358   19.13423147633420
H         4.53058276952287   -1.27808897123675   18.78585647744250
H         3.43469967601216   -0.86296786807221   17.45060732334874

