78
CSD_code = HOBVID | q = 1 | S = 0 | Stoichiometry = C39H34CuN2P2(1+) | MND = 4
Cu        1.19138822919530    0.60487398128020    4.35943073293399
P         1.93017309735095   -0.55887552832694    2.67047418197363
P        -0.62511068216370   -0.57813505175652    4.59194920590745
N         2.63255489816689    1.76492480697540    4.04621882361831
N         0.69034297656168    1.48511725022955    5.93941139773407
C         3.28693068603692    2.26941011644744    5.23028521045167
C         2.42078520017858    3.26509549661990    6.01351853825400
C         0.92900534156926    2.90914122612629    5.95536174610674
C         2.86881854041173    0.74313493140458    1.90096526985172
C         3.32211895103917    0.74129968193561    0.58371012179143
C         4.20782910652459    1.71442397713105    0.17991774164559
C         4.64195403062303    2.66583244515890    1.10277446303700
C         4.19224512248766    2.67931027070530    2.40163724186133
C         3.24645729336411    1.73311733340291    2.84537364774053
C        -0.84175703670502   -0.30286496727342    6.33710375492350
C        -1.64894289759215   -1.06542476929769    7.17840177357081
C        -1.88709663665787   -0.62226482090441    8.45948650369711
C        -1.33020802337386    0.58662760182855    8.87628650234789
C        -0.52555118161775    1.33985016250905    8.05497013931229
C        -0.21205959498682    0.89932363159253    6.75317355366493
C         3.13151881304248   -1.66628892927937    3.44644710157281
C         3.03108975345097   -1.95550439285501    4.80340054424467
C         3.97434951312021   -2.77143336876909    5.40167586821309
C         5.01582646561768   -3.29031303365096    4.64840300076655
C         5.12080551968587   -2.99396948056477    3.29717369529663
C         4.18275717298956   -2.17996687544013    2.69059001655865
C         1.05652672082119   -1.53383112688814    1.43212413756502
C         1.07596061264828   -2.92602793548237    1.46724056986401
C         0.36001016738216   -3.63931303636543    0.52391457809981
C        -0.38610462971296   -2.97344999077734   -0.43600414834539
C        -0.41998331548592   -1.58688675597831   -0.45894686075191
C         0.29576619644353   -0.86272043846647    0.47489071155196
C        -1.87056386607018    0.43372075745020    3.75710555531733
C        -1.47937442477849    1.36647485738910    2.80211803822720
C        -2.43080150929704    2.16848139477058    2.19789156028539
C        -3.76524641655569    2.04253689564745    2.55087316858350
C        -4.15376680476107    1.11816473860212    3.50961800800351
C        -3.21027563948647    0.31240519395629    4.11873743305499
C        -0.98397512799987   -2.29268916611895    4.16922462024221
C        -0.37814806880025   -3.30026283265202    4.91978678074269
C        -0.59810533100512   -4.62369401004047    4.59023016018800
C        -1.41144160723600   -4.94419995262084    3.51319163356798
C        -2.00349962368277   -3.94175917260462    2.76085501578041
C        -1.78617983993127   -2.61350200988594    3.07691002106014
H         4.24451493512931    2.73043587476152    4.97762284499347
H         3.50867416158671    1.40915842577679    5.87939927291443
H         2.54443053103013    4.26990599402616    5.60823867954131
H         2.76519187501236    3.27185712457377    7.04817084143321
H         0.40355225277733    3.38124447944753    6.78855267437445
H         0.50304409665424    3.32789800013384    5.03141664195736
H         2.98383598986249   -0.02680188603128   -0.09868130902901
H         4.57333496830182    1.73428843270069   -0.83395642647250
H         5.34130463425081    3.42490045898615    0.78585977815841
H         4.52669882684337    3.45616803524467    3.07116225941642
H        -2.08497416356127   -1.98565400621515    6.81353816152301
H        -2.50785123336965   -1.19461453346839    9.12956615001209
H        -1.52438615456287    0.93695902272276    9.87892767887438
H        -0.08703204815456    2.25030515674227    8.43225395145840
H         2.21492117971973   -1.53047522199820    5.38158590594433
H         3.90140636127733   -2.99854194562364    6.45453430877900
H         5.75295180714643   -3.92360955582904    5.11737493273060
H         5.93856625677434   -3.39475872204162    2.71802781980038
H         4.25723076937707   -1.93222871731788    1.64001551024381
H         1.65457277084189   -3.44141549582966    2.22132006613252
H         0.38518751676308   -4.71821888420447    0.53824283750043
H        -0.94173496261969   -3.53596183178408   -1.17045424726108
H        -1.00204996241077   -1.07203647038395   -1.20813307779280
H         0.28437893019144    0.21914803000736    0.46063046588987
H        -0.42767951700759    1.45943646192732    2.54487340440358
H        -2.13269435973360    2.89453982056984    1.45677813435190
H        -4.50556574062862    2.67187508217385    2.08153438002434
H        -5.19339215656132    1.03035303079075    3.78558083818835
H        -3.49700734367141   -0.40553581255952    4.87567254223283
H         0.24597714977556   -3.03857246565906    5.76401339633959
H        -0.13915923838014   -5.40702739582597    5.17410638484587
H        -1.58568770341028   -5.97907254840686    3.26179843534314
H        -2.63725511151101   -4.19474254289915    1.92466477060087
H        -2.24102746856389   -1.82849449978157    2.48876023244247

