40
CSD_code = HOBVEB | q = 0 | S = 0 | Stoichiometry = C17H14FeN2O5S | MND = 6
Fe        4.06098119762691    2.54666170575157    3.05294453372823
S         5.02044217236221    4.65045078926195    2.46245775369090
O         2.65081658930930    0.06527089872656    3.54581809215398
O         1.42565229751610    3.67409744983298    2.67313859816322
O         2.85332596041122    3.04808787747819    5.57502138168547
O         7.20680244037912   -0.73707300001914    1.64853290597959
O         6.80346074647151   -0.53992311013083   -0.54711845523035
N         4.53166764036947    2.65849280324712    0.92335683805507
N         5.98719230987286    1.90615351298096    3.74978714169328
C         3.26219278349047    1.01038351525263    3.32805881539567
C         2.47249766111346    3.23798320334831    2.78557911131222
C         4.45431513916573    1.98562011254032   -0.22028322781198
H         4.00183748995050    1.00546819259807   -0.16617432869659
C         4.92443514662585    2.49203011822721   -1.41416457426859
H         4.84836701557780    1.90863993788377   -2.31614634153381
C         5.50535323317468    3.76053932346339   -1.42035230293624
H         5.88918841938884    4.17838825788915   -2.33930549326024
C         5.57669845820576    4.47680143078124   -0.24763595735101
H         6.00364694065031    5.46552753202180   -0.19860526999317
C         5.06346290811573    3.89655488927212    0.91786831433999
C         3.84772212934886    2.97706462058770    4.90845011890764
C         5.22127382610546    3.32394120033395    5.51862867349156
H         5.39934872273788    4.36946907896825    5.24709771416823
H         5.19182525844672    3.25414293793284    6.60844843047181
C         6.28103116957106    2.46417785359591    4.93162103012247
C         7.48862615038864    2.22612702999284    5.57820634095832
H         7.68410732090705    2.69144664843411    6.53108138522542
C         8.41997524878974    1.39737431736668    4.98232664869541
H         9.36929428401753    1.20099378003935    5.45654856899686
C         8.10735733543414    0.81593049574022    3.76402815963997
H         8.79143432003631    0.14859316823126    3.26678646519251
C         6.87859511509504    1.08813671220296    3.18260986841381
C         6.48557247406498    0.46499022086094    1.87806667658503
H         5.40716151532796    0.25731173223686    1.89134795670654
H         6.68105741996886    1.15797105469391    1.04861047862465
C         7.28644213071872   -1.14579859596136    0.37036282635255
C         8.05488493890149   -2.43320836013127    0.26940238258244
H         8.06764411129876   -2.76987414375581   -0.76231989788177
H         7.58928212034743   -3.18355810980762    0.90324379908382
H         9.07232785871513   -2.27758708196759    0.62017483854696

