41
CSD_code = HOBWIF | q = 0 | S = 0 | Stoichiometry = C14H20Cl4N2W | MND = 6
N        -0.84131971673404    6.21736278869507   14.05608418703440
W        -1.58941032189761    4.15164463622245   14.13388647562211
Cl       -1.47834220467601    4.43618239345949   11.77470200949676
Cl       -3.55298502833795    5.43408290262455   14.15016230191889
Cl        0.73954078368410    3.87784237549180   14.07333419133461
Cl       -1.45136878497532    4.54760953021650   16.46130632881849
C        -4.95064889679534    2.18891306145395   14.11632177149482
H        -4.52461213054503    2.95354768350270   14.78708562881715
C        -4.03636927731430    0.99137220570722   14.17496695816134
C        -2.64045533703739    1.23706981320271   14.19255572776823
N        -2.18913000156242    2.49214510515323   14.17178131632056
C        -4.47810977185861   -0.31752285799984   14.18702714215596
H        -5.53519567643158   -0.52918796323529   14.16872560850376
C        -1.72042373750180    0.15927655929165   14.23106788986738
C        -4.94566037096663    2.75491585496510   12.68847325612952
H        -3.93129571723692    3.03667156132433   12.38952113463100
H        -5.57709452907214    3.63826476534597   12.63509191058264
H        -5.32122560027614    2.01016690927128   11.98953747810036
C         0.10745503564906    0.99858833375832   15.68196603354150
H        -0.49278867455916    1.87453793738771   15.94770666309332
H         1.15748918503509    1.27758705984076   15.72135317955247
H        -0.07660722921677    0.21416086751433   16.41351132417199
C         0.66391389408662   -0.64885447053630   13.86943897635832
H         0.36756418073016   -1.05964760097276   12.90715519915661
H         0.64755462115698   -1.44133567699520   14.61420547955575
H         1.68542451735348   -0.28540403423723   13.78747837430309
C        -0.44377599268091    7.28053901901094   13.89594700749083
C        -2.21366331365273   -1.13097063802554   14.25019717125129
H        -1.53360026509158   -1.96704770516771   14.28207564808526
C        -0.25265160909422    0.50207808448383   14.27357436868925
H        -0.09564953259169    1.33496534105706   13.56827662995508
C        -6.37975473080973    1.89843771031665   14.56534847619541
H        -6.93320461505906    2.83166519981087   14.63683322868340
H        -6.38786878196544    1.41881915942566   15.54125769585522
H        -6.89148152567273    1.25778633086578   13.85081930982258
C        -3.57827898780321   -1.37051243620795   14.22540010004741
H        -3.94355962497853   -2.38668838762591   14.23651946167722
C         0.04869805975380    8.59818507945166   13.69818792977990
H        -0.78611132226375    9.27166229935813   13.50284452190259
H         0.72872382271731    8.60422691221737   12.84590755980659
H         0.58117920849252    8.92596429057603   14.59126434426582

