70
CSD_code = HOCBAF | q = 1 | S = 0 | Stoichiometry = C27H36CuN2O4(1+) | MND = 4
Cu        0.67822568494302    3.69676838961418   14.17197982331928
O        -0.49905241146597    4.85379358134070   14.94947145774778
O         0.56996033068185    2.68070877998710   15.68556227042888
O        -1.80980176866748   10.04483715311998   13.78360250744914
O         1.95055189791201   -2.52506982565352   16.68436405472922
N         1.16379318365381    4.86018029808792   12.83901729534332
N         1.49623215660104    2.38545703152090   13.18147331292478
C        -0.76299324081565    6.08705752982731   14.64668147373148
C        -1.67497629442450    6.83902803457848   15.46189491025568
C        -1.96192308934881    8.12703277830249   15.09613588826392
H        -2.64399950770495    8.72347588776647   15.67829399266582
C        -1.40928407498036    8.77153092577458   13.96600674786563
C        -0.53857717261843    8.07186244284186   13.17322985853207
H        -0.07900076153263    8.51175580542209   12.30345688834285
C        -0.20802607205885    6.73425395859059   13.50308211946668
C         0.69968148055260    6.05852680465962   12.67225206579577
H         1.04655779932613    6.60150989631713   11.79531671557660
C         2.15199528711589    4.30737135850258   11.92300663645199
H         2.05558347712012    4.78032407011518   10.93876457265337
C         1.83074119553596    2.81778404439738   11.83892470226143
H         0.95530720614757    2.65972350485491   11.19761362376957
H         2.67194270115513    2.24672222597204   11.43712971108912
C         1.84126690242717    1.21308867624401   13.61175192332963
H         2.40299046509091    0.58229672064347   12.92565618711863
C         1.55602524853980    0.66204556340907   14.87207792923368
C         1.93971268609426   -0.67994649934404   15.11076519875808
H         2.43518460500640   -1.21824190473520   14.31954836170185
C         1.65520585041454   -1.26337621375983   16.31760952035100
C         0.98294354236630   -0.49794982087004   17.29756221823121
H         0.78712673151100   -1.00816462772166   18.22557566690842
C         0.58783560564434    0.80085262824487   17.11862774478363
C         0.88295632216897    1.43517773302609   15.86463226255579
C        -2.32705620875018    6.19307990728031   16.67360590970869
C        -1.23254081155353    5.74750502630972   17.64947941407822
H        -0.57366316131689    5.02345597580295   17.18361177249918
H        -1.68374854406382    5.29169376720432   18.52634132391034
H        -0.64376641356187    6.60431342037908   17.97022891253088
C        -3.15715949440975    4.99263670543996   16.20094378435921
H        -3.61714660736585    4.49972024546765   17.05298408953332
H        -2.53286878465982    4.27244305663370   15.68064029900030
H        -3.94402075078419    5.32270621510981   15.52591213514062
C        -3.26375313162813    7.15084454597249   17.41665805070636
H        -2.72743394594497    8.02014103441480   17.78859953792975
H        -3.68923363031110    6.63137354575291   18.27174381705268
H        -4.08573735258971    7.47545206058085   16.78390425968153
C        -0.10811981819286    1.57942239472294   18.22302941210559
C         0.77516892528202    2.77100165857612   18.61489134762664
H         0.95332550064718    3.41641584073770   17.75996977819153
H         1.73357125293763    2.42017791676841   18.99197190117959
H         0.28994987169635    3.35357212081264   19.39315755609833
C        -1.47065459309447    2.05828743434747   17.70997080849075
H        -2.08574031527855    1.20684774754719   17.42644107277363
H        -1.35138941104506    2.70728102646128   16.84978762599321
H        -1.98528746754791    2.61025576555772   18.49141328385412
C        -0.34421306708115    0.73378127574096   19.47832505842129
H         0.59256319147453    0.39472207499379   19.91294927292528
H        -0.97605342755018   -0.12445184260167   19.26409588830306
H        -0.85222947864677    1.34389212052256   20.22110408366203
C        -1.31466460615896   10.76139947181255   12.67373081703769
H        -1.60142672910746   10.28456727037215   11.73189073044417
H        -0.22641089815660   10.86353603093555   12.71871979142138
H        -1.77180404242522   11.74687266968842   12.73299354997501
C         2.63102325596994   -3.35854898404372   15.77167266181152
H         3.61000169041961   -2.94659810067871   15.51001382639254
H         2.04322551664166   -3.51774058049423   14.86292319476194
H         2.76477501017183   -4.30829274129919   16.28524284332348
C         3.55746587751855    4.55040079556095   12.47458531179463
H         3.67214280882334    4.06688142498871   13.44299474113009
H         3.73565892085165    5.61560636516081   12.59685818332954
H         4.29936490239726    4.15242840638014   11.78794631118389

