60
CSD_code = HOCHIR | q = 0 | S = 0 | Stoichiometry = C27H28P2PtS2 | MND = 4
C         4.92166306597457    4.34475929055058   -0.16757609056338
H         4.40759476942686    3.74339617841634   -0.92190530717268
H         5.07331407496129    5.35587887059699   -0.55322304498227
C         5.18004254925267    1.44490092101028    5.52437911724588
H         4.55843955265487    1.40554605927355    6.41576291182255
H         6.17629535810725    1.79704778846388    5.77542390889121
H         5.23665995279888    0.46459701212120    5.06073346085890
C         8.43294187922139    1.30659186676783    1.79457976805462
H         9.27435254686116    0.72753326694408    2.16816406889961
H         8.77781889391304    2.29979948618630    1.50346987645960
H         7.99040118043837    0.79558595611644    0.94139623900488
C         3.61693022357664    5.96801391066304    1.86778102362689
C         4.61019123902657    6.93820207685525    1.76202882305204
H         5.58711277495262    6.67275479961646    1.38130991217544
C         4.35448821493169    8.23790942166335    2.15571040669893
H         5.12711038275627    8.98768112821547    2.06410035038993
C         3.11450110170780    8.57582069134913    2.67428851410019
H         2.91647670713455    9.59201935242390    2.98138287303791
C         2.13415650037295    7.60626907696057    2.81088087060199
H         1.17261050009853    7.86505786246361    3.22926781006638
C         2.38334508301888    6.30432638350265    2.41797267576079
H         1.62524363033823    5.54287394495786    2.53535676226250
C         2.37175880721902    3.58954942535162    0.93020416208953
C         1.91136421261249    2.41937249615620    1.52047688935679
H         2.51255422194860    1.95275655999393    2.29140921292469
C         0.69995718438284    1.87943510379651    1.12394904158444
H         0.33772932356230    0.97174108487569    1.58299241923904
C        -0.04543845648128    2.50422003617496    0.13795877177124
H        -0.99015873881867    2.08329361445915   -0.17361493580688
C         0.41512279583371    3.67193423758902   -0.45309151757211
H        -0.17090231026145    4.15618393571928   -1.22089758139771
C         1.62223673039097    4.21799982487792   -0.06029398772836
H         1.98513898216121    5.13280431141297   -0.51038363247770
C         7.16229342074705    2.74365535443886   -1.11335667068058
C         8.49081385941865    2.88895240926271   -1.50021400144032
H         9.14977171081340    3.53543446223441   -0.93737224352178
C         8.96712875597180    2.20752940962272   -2.60565267939349
H         9.99757067608029    2.32926648372008   -2.90604634114012
C         8.13155311983790    1.36510710378217   -3.32046755303300
H         8.50845538739646    0.83378905162466   -4.18158568448712
C         6.81673959169504    1.18944207016068   -2.91830138772128
H         6.16936866518234    0.51676784605028   -3.46157375900987
C         6.33715368945726    1.86618696492172   -1.81346506435768
H         5.32037644225027    1.70648817148826   -1.47672785763476
C         7.55157998956597    4.95197116344502    0.69522682369951
C         7.93011444080598    5.20916690470352    2.00882396057823
H         7.61860700821165    4.51912660901567    2.79255097983480
C         8.67239055492381    6.33734042816129    2.30874700623433
H         8.96371732758104    6.53636870869141    3.32905284886921
C         9.03389756802242    7.21227035306507    1.29707889373190
H         9.61090212461881    8.09555291340581    1.52784603459615
C         8.65371748311335    6.96156696645195   -0.01315749904560
H         8.93391360194807    7.64905730084314   -0.79811179424538
C         7.91272454623946    5.83476848201530   -0.31854866100598
H         7.61134394971832    5.63655867790694   -1.33899863672295
P         3.98716148254887    4.24034010834016    1.44684703460944
P         6.48986210345790    3.50711075097450    0.39723879168445
S         4.36979360410152    2.61729912021058    4.40241344318964
S         7.24129691991220    1.41346428040994    3.16322166157594
Pt        5.56849904230740    2.82106192949949    2.43863858255269

