32
CSD_code = HOCLOA | q = 0 | S = 0 | Stoichiometry = C10H14CdI2N4S | MND = 5
I        11.74114255433138    3.22113864048439    2.38861037575905
I         7.02975631014680    1.90031458274258    1.87748084413227
Cd        9.37595134200665    2.28748849144174    3.23682917424556
S         8.40585024477275    3.96171045628548    5.38403425059493
N        10.13876659891902   -0.04105318611209    3.89928433298756
N         8.05405615162875    1.09348408680226    5.13680642377051
N         6.93862742316101    1.77746852695520    5.40654319887625
N         5.76054479669592    3.76960185216584    5.34580403528245
C        11.30993511354496   -0.52567823828570    3.51856148289892
C        11.77842367156722   -1.77061835390120    3.91214056230849
C        10.98524767714197   -2.53615933716152    4.75091926295655
C         9.75800246180672   -2.03687125135251    5.15093942238718
C         9.35992022318912   -0.77824381680364    4.70150013799922
C         8.07079971227151   -0.18533223766368    5.08084917402909
C         6.94876979216652    3.14942886994526    5.35803207638944
C         5.68050508066810    5.21108215388054    5.31507621045779
C         4.52348682480634    3.05374660809123    5.10504097591240
C         6.87015645669092   -1.05652835490161    5.31643501856528
H        11.90328572950035    0.10903338573194    2.87138354343502
H        12.73892205604048   -2.12212033621905    3.57228463836529
H        11.31596459329020   -3.50577364238536    5.09198623852384
H         9.13241032619566   -2.60257960623278    5.82321337697337
H         6.04536419283399    1.29062787774129    5.40779939657708
H         7.09853177985152   -2.09907828728714    5.12501979140256
H         6.50918166123108   -0.95405329643671    6.34076576240728
H         6.06878099757606   -0.76403703697661    4.63429239848685
H         4.90337274021405    5.54568939934912    6.00141569717978
H         6.63552182372178    5.63212867160628    5.62052437344573
H         5.44711718614698    5.55908574056628    4.30580166107761
H         3.72874660546356    3.78133964922298    4.96475993709029
H         4.58876224823872    2.45147228343760    4.19425486651021
H         4.25569562416512    2.42048570553393    5.95551135892937

