20
CSD_code = HOCSID | q = 0 | S = 0 | Stoichiometry = C8H7AuBrNS2 | MND = 2
Au        1.39546702243632    6.23978113709740   11.03722302135410
Br        1.49870415577851    8.57348716512350   11.31926246075228
S         1.37587670379314    3.92724091012934   10.54017769491852
S         2.34910502245815    5.51757925583119    8.18864339955780
N         2.14478347762694    2.95733295847634    8.17261736082968
C         1.94507846033078    4.01961920187386    8.97299683117057
C         1.89073513694697    1.59994348250781    8.58259477272695
H         1.54427494702046    1.60385103680196    9.61415254175092
H         2.80753040209395    1.01303340312169    8.51183609568026
H         1.12388958125842    1.15543948578075    7.94643292834322
C         2.61997987395438    3.27472008573897    6.91500685632779
C         2.91542413266276    2.39274962922595    5.88230261911043
H         2.78142319511995    1.33048721334988    6.00714422851773
C         3.38513790375828    2.91140350343728    4.69002478800897
H         3.61898323025854    2.23932950786999    3.87910613559416
C         3.56116662752585    4.28003272666569    4.51720078025112
H         3.92958260650098    4.65694062822988    3.57630895040255
C         3.26909349090718    5.16636000178132    5.53831294264750
H         3.40024166522297    6.22941327377939    5.41817584011849
C         2.79912236435429    4.65015539318407    6.73177975193989

