19
CSD_code = HOCSOH | q = 0 | S = 0 | Stoichiometry = C8H2N8Pt | MND = 4
Pt        2.31191171253108   -0.00047841712818   -0.00016388249280
N         2.06447243336144    0.06992814251592    1.94871017407216
N         0.96949909638890    1.40561853150976    0.03860821521016
H         0.56721956528880    1.90582454500105   -0.75597366974980
N         0.55933322525767    1.35945306522654    4.75143316428567
N        -1.20482011117440    3.50910691601194    1.77732965230329
C         1.20835915377738    0.93006495370611    2.30154467025884
C         0.54624180799175    1.73100663736717    1.22658275980819
C         0.84564724688158    1.17123503684730    3.65936669642363
C        -0.42002436590126    2.71493339588559    1.50749841830225
N         2.56009048911390   -0.07027109655464   -1.94895576081945
C         3.41685098731584   -0.92982137999871   -2.30168608792189
C         4.07908386235377   -1.73058760617596   -1.22668161610020
N         3.65547085794835   -1.40548951814806   -0.03873632455936
H         4.05750803255798   -1.90591585701384    0.75582804547516
C         5.04576480309087   -2.71416991167395   -1.50732025082099
N         5.82953381231185   -3.50964281670008   -1.77635921943344
C         3.77959593693092   -1.17106894656470   -3.65949445826475
N         4.06576145397360   -1.35972567411325   -4.75153052597667

