88
CSD_code = HOCTAV | q = 0 | S = 0 | Stoichiometry = C37H48Si2Zr | MND = 12
Zr       16.62611517419167    5.04489246141655   11.11722770787226
Si       18.66709961011904    2.06212907660523   12.00234887523545
Si       13.51006629536890    4.92971052780587    9.06813134814589
C        15.13317578757592    5.16778526113012   13.08935451116507
C        13.83793519635463    1.87516430535484    9.82744224989604
C        14.83640756221095    4.15823162820784   10.15357798602343
C        17.06127169857131    5.69246687125310    8.70621633357130
H        16.31015010894268    5.71818660402267    7.93026686568747
C        17.45455043193803    6.77946995008437    9.51725783614746
H        17.08318055560875    7.79434857885810    9.43711204966858
C        16.44998431900825    5.01139148097096   13.60716608693522
C        11.68370719831242    4.77250057275969    9.64666871415778
H        11.33852121629320    3.75072230599720    9.52862569785964
H        11.03475803458416    5.41107614416689    9.05483152189248
H        11.54406169849830    5.04293530513498   10.68914307702020
C        14.87515092568298    2.81440486554063   10.33000124110991
C        14.01152901994547    1.21874161045614    8.61395101795310
H        14.89934384389887    1.41538358198157    8.03064944602279
C        18.58595677132925    6.37502458584996   10.26275526395235
H        19.22330926716335    7.02876603996965   10.84678420643328
C        17.17760149722070    6.19905402750287   13.31240843170600
C        17.08549329300829    2.89790940456270   11.42516527045635
C        18.57398274026568    0.66353473575843   13.31387256519371
H        19.56956518210452    0.34356110290075   13.60676353792648
H        18.05223372025377   -0.20192809755243   12.91943224292398
H        18.05348491652289    0.97655974333944   14.21333133764597
C        15.95166248852473    0.68564131290448   11.09099875809751
C        16.02859601637957    2.16715980317265   10.99446180127251
C        13.05976291048577    0.32874958982111    8.15294984564744
H        13.20556541169644   -0.17459857149804    7.20769565884881
C        15.03509316600526    6.45786739640691   12.49592541013618
C        16.52099482426325   -0.12116313091951   10.11291261925811
H        17.02468955481145    0.34160557553360    9.27704177769757
C        11.92148246016983    0.07859600828726    8.90079507460271
H        11.17928785573570   -0.61987059353833    8.54238863586660
C        18.49375867036347    6.62451236800273   13.91245374124574
H        18.34133321602969    7.51215786323322   14.53088949637772
H        19.24627988593800    6.87787022446297   13.16239023029587
H        18.90044654293163    5.84453963603175   14.55165496955573
C        16.30331728997983    7.08513387966041   12.61887586910853
C        11.74056580060898    0.72612127080556   10.11063810590972
H        10.85440331413443    0.53345431306537   10.69885634166115
C        12.69253952720669    1.61767710087665   10.57105498065521
H        12.55122919580343    2.11909656137616   11.51751464540572
C        15.29436517425934    0.08387948956467   12.15785366482132
H        14.84493254110376    0.70202992113814   12.92276913730468
C        13.51112925528166    4.27421894716489    7.26252609612201
H        13.01787001985001    3.31000541459564    7.20259142279493
H        14.52044144295650    4.14748182080478    6.88167706670807
H        12.98973120659513    4.95475850708116    6.59567500498302
C        18.88298637815464    5.04198207157839    9.91405416926785
H        19.76385343113477    4.49085322036323   10.20819167904320
C        14.00117185611311    4.20747919307820   13.32305106872324
H        13.61845027758207    4.30936050801640   14.34219004730912
H        14.33630161468515    3.17754040995980   13.19009639295964
H        13.18315753863857    4.39815460054884   12.63067848292127
C        13.91622912798316    6.81181745409951    8.94116816137943
H        13.04706696540557    7.42161652274664    9.16585194900152
H        14.23139690527705    7.07642438036618    7.93648237179022
H        14.71542433972677    7.09527375592157    9.62715785672171
C        16.83411932554048    3.89368719074622   14.53722603921638
H        16.30934349339403    4.01354839349458   15.48870288458289
H        17.90039510296842    3.88391694974784   14.74102997230721
H        16.55484890158401    2.92607157511884   14.11999720925574
C        17.93538619559540    4.61836422854400    8.96074433796641
H        17.94022261384042    3.67130369460581    8.43691457299053
C        16.60568605731515    8.53201985338825   12.33104032734842
H        16.40110014655042    9.14033842344704   13.21654731968083
H        15.98860200329571    8.91844703222047   11.51994695819517
H        17.65318367571124    8.67891681937456   12.06899261050313
C        15.21521442536616   -1.29339191100930   12.24926969152638
H        14.70389027427811   -1.74915968675549   13.08521212445602
C        16.44067701107289   -1.49824151865315   10.20257162814405
H        16.88553033311341   -2.11535689690521    9.43475983445124
C        15.78788356097733   -2.08861060639878   11.27141626851056
H        15.72357005092391   -3.16473887483553   11.34092063096890
C        13.73393651414405    7.14203085932342   12.17784911511052
H        13.21281502105766    7.36912435482764   13.11175208633376
H        13.08234933240132    6.51267907767296   11.57634756630253
H        13.89108298698114    8.08215410827684   11.65483708006395
C        19.77609998175145    3.44996071152503   12.75230001246881
H        20.74530527154718    3.48392930052733   12.26404196990024
H        19.96896350072856    3.28021438619973   13.80695982704241
H        19.30984569989366    4.42920656120269   12.64124131923513
C        19.66453986147059    1.30977785322498   10.54003438804649
H        20.71800214270739    1.22241293788572   10.78916875341365
H        19.58771781026233    1.91558938377872    9.64204912676219
H        19.30283643476139    0.31595630061351   10.29942838908469

