89
CSD_code = HOCTEY | q = 0 | S = 0 | Stoichiometry = C34H46N4NiO4 | MND = 6
Ni       -2.46263602566715   -4.37113237930815    8.97177045389739
O        -3.17218425606814   -4.56588572949390    7.26922114825775
O        -2.12169145496206   -2.93682146974827    6.18907169328427
N        -4.50955692824793   -4.80958342069270    9.73226474911078
N        -2.08688919271595   -6.67802680900783    9.08164853703230
C        -5.36963091565949   -3.76354898187932   10.07454598157574
C        -5.45832927028572   -3.32684270951909   11.39583232035304
C        -6.26864765789174   -2.25643262928101   11.72406486496783
C        -7.00603177970873   -1.60844005759576   10.74572321075628
C        -6.92953612285642   -2.04239913606903    9.43171133427185
C        -6.12036171070296   -3.11110642806965    9.09504875456066
C        -2.78528626757153   -7.49627197698209    8.18734156499941
C        -4.05352256664265   -7.97798253516258    8.50769323481916
C        -4.76531393001074   -8.73370296030278    7.59532439473241
C        -4.22325870940778   -9.02914974323444    6.35553688771911
C        -2.95482710418479   -8.56940020853110    6.03905341460359
C        -2.23787302469305   -7.81210076923580    6.94521469298799
C        -2.91421909683244   -3.88607543948774    6.23968935898492
C        -3.65044742920197   -4.32228499168456    4.95062646216368
C        -2.62024873772390   -5.08556394345886    4.11211888277450
C        -4.11252447710277   -3.07003793174947    4.20535566671980
C        -4.83485406205927   -5.22880313146187    5.27395079524614
H        -4.20364633805106   -5.36185936662518   10.54188518025232
H        -4.84017435772954   -5.38041292615762    8.95837278952830
H        -2.37366276099467   -6.79263956128705   10.05608040115085
H        -1.07880696723016   -6.74151175839279    8.97248479691264
H        -4.88045680132610   -3.83229233886173   12.15472601229468
H        -6.32831827772632   -1.92693195472831   12.75108689078044
H        -7.63808794162404   -0.77321169631162   11.00529492150267
H        -7.50458949085894   -1.54449848775004    8.66475773656315
H        -6.05109513846873   -3.44794434167387    8.07033134169596
H        -4.47111260593837   -7.76679829981260    9.48205820140857
H        -5.74817996687026   -9.09908569215329    7.85559267158922
H        -4.78187143966196   -9.61742365758774    5.64365477107459
H        -2.52098484321159   -8.80535211665754    5.07802067651577
H        -1.24942243829758   -7.45108378028584    6.69908790866815
H        -1.76822974903892   -4.44562749328968    3.89122286798820
H        -2.27568934704255   -5.96575064126243    4.65117786739059
H        -3.06642961095889   -5.40530621618814    3.17212578348992
H        -4.88354616159172   -2.55007255795210    4.77097392321015
H        -3.27448448912157   -2.39171511520551    4.06494551043579
H        -4.51731843229030   -3.33917431135845    3.23200450063439
H        -4.50577626741236   -6.10306763121018    5.82973140070876
H        -5.57286800274502   -4.69737406940940    5.87127475178311
H        -5.31119006011404   -5.55742223593082    4.35239116163942
O        -1.75338367760930   -4.17658244715837   10.67438503301269
C        -2.01093582511827   -4.85704555275193   11.70357158008049
O        -2.80307639428391   -5.80663152938576   11.75384906189412
C        -1.27453245498617   -4.42120584186816   12.99270275587113
C        -2.30554250995909   -3.66121982939887   13.83319346991350
H        -3.15637499947258   -4.30292667911847   14.05350144220876
H        -2.65191226799977   -2.78056459128543   13.29606629952593
H        -1.85927074324120   -3.34245099509971   14.77343860462663
C        -0.80965294294610   -5.67388387409670   13.73540210548989
H        -0.03820855264212   -6.19171102344085   13.16833541824910
H        -1.64646147918084   -6.35375917674499   13.87555141832418
H        -0.40452178874855   -5.40552092543812   14.70879658717705
C        -0.09180390420807   -3.51212648080261   12.67030768266580
H        -0.42285368618631   -2.63780778950373   12.11589860524471
H         0.64676693468802   -4.04130315659019   12.07168249078781
H         0.38463419119999   -3.18383278811686   13.59200605121796
N        -0.41574138105953   -3.93213136685504    8.21147190436306
C         0.44502593814315   -4.97839655670715    7.87143016419773
C         0.53348944206650   -5.41818692171311    6.55111371595418
C         1.34455599847662   -6.48882373538600    6.22519368335395
C         2.08248850914106   -7.13402737674113    7.20490347803624
C         2.00600107793817   -6.69703205562660    8.51779121857404
C         1.19644261313753   -5.62804308730926    8.85217030184909
H         1.12810734068323   -5.28806253626582    9.87596718515753
H         2.58369053873929   -7.19100900446457    9.28538896174816
H         2.71590138101669   -7.96885441110260    6.94686840262876
H         1.40406152367128   -6.82056867951067    5.19876972253838
H        -0.04535970797931   -4.91520301591871    5.79124633034782
H        -0.72171288518861   -3.38117014732045    7.40092789500706
H        -0.08583552360140   -3.36000930331746    8.98470706030231
N        -2.83831449404729   -2.06427016148416    8.86152405798591
C        -2.14063079219818   -1.24609229683035    9.75649932199654
C        -0.87247553220547   -0.76368564454214    9.43689232768266
C        -0.16144639751061   -0.00802284898461   10.34990918445020
C        -0.70426570856507    0.28678992690074   11.58947670949459
C        -1.97256770887221   -0.17376054243515   11.90523281715079
C        -2.68871979106051   -0.93110299060722   10.99851234489653
H        -3.67683995562932   -1.29324705726821   11.24436182680945
H        -2.40658205151373    0.06082565670192   12.86653388097240
H        -0.14621916670654    0.87494792442173   12.30195406666549
H         0.82119230895664    0.35835652251713   10.09002479921839
H        -0.45454392098007   -0.97390917375791    8.46243751113666
H        -2.55098039091387   -1.94938293969334    7.88730894677554
H        -3.84647895472025   -2.00100586384215    8.97010310339777

