218
CSD_code = HOCVAY | q = 0 | S = 0 | Stoichiometry = C67H113Cl2O34PPd | MND = 4
Pd        4.56973394694956   14.00994996853827   12.00844246969096
P         3.19616181513667   15.69794758565523   12.50109596830907
Cl        6.48152582204109   15.06651071602926   12.64347322929942
Cl        2.69233207775666   12.94222521859406   11.24743869936897
O         5.56723701261473   11.90436699268337   12.31471381748424
H         4.83608124033691   11.33331150245836   12.61995957916332
H         5.99095430053962   11.42633213466090   11.58306483180907
O         7.34018759538802   16.27374384552972    7.57670227111376
O         7.01825843181854   18.97770313274308    8.75257301129678
O         5.71439960855995   18.71975905752359   11.27279639653973
O         4.08596415636611   16.20424338590317    9.09190301662567
O         6.87690627024368   20.95403404500414   12.40151679806593
O         6.81197658140110   20.41220825546063   15.16642254720363
O         6.10089532116243   17.65551483777026   15.66212954461440
O         4.01026430143804   18.75849122815687   12.84571248737798
O         6.73203298445486   18.25836151308942   18.34942731385414
O         8.30008455159182   16.06907173170498   18.96768930566968
O         8.11377895714470   13.82546563386841   17.06934754072222
O         5.06464592306959   15.67936151422948   16.35366494760766
O         4.89268353498010   12.82279225617271   16.41132031850253
O        10.82842256303642   13.49605513923540   17.01417457280223
O        11.14893603529694   10.72082317774192   16.83542489617442
O         8.60700271804272    9.38061198069472   16.49942025576532
O         7.86085934534854   12.21667711046727   18.74122715279569
O         7.14119168237623    9.50295005070123   19.59030584404823
O        10.40468843124640    7.16585546845683   16.42046861102765
O         9.29863215353329    5.86981878041459   14.12046263226022
O         7.17769762139108    7.41843556764167   13.02678084206809
O         6.82360054903587    7.88995550572998   16.65116007635682
O         4.66017650084254    6.44820171894157   15.22388610378518
O         8.18489935260558    5.92547335520014   10.83448331438264
O         7.46131681155531    7.80020795082072    8.77330315140912
O         6.23514506850905   10.21667641249428   10.08607574892006
O         5.06489748911081    7.39913961942831   12.03548599764585
O         3.56817572757246    9.91009283014507   12.87619413336540
O         8.76898007325937   10.89433073525769    9.58412289345121
O         8.58111626300948   13.77800912119327    9.11821910213544
O         5.80259883952249   14.70982067947707    9.31355202561788
O         5.46955777253588   11.23747948414289    8.15126112873724
O         4.06741755211443   13.34982079096215    6.71821405817598
C         5.21620817591334   15.68481653638140    8.47213757979477
H         4.87563787480230   15.21179140715856    7.54383742420526
C         6.16363898740655   16.84504641746132    8.08652867785485
H         5.64775958436085   17.42791013026308    7.30626405436501
C         6.43588193956609   17.79795820565682    9.26664142911064
H         7.12899904583215   17.30395457960012    9.95827421805623
C         5.16761810425255   18.14516771979108   10.09129277375788
H         4.55340092731249   18.88318550304331    9.55452695285108
C         4.38852678663983   16.83680227914189   10.33487828208115
H         5.09894797126795   16.19501698209987   10.88056503044833
C         3.04120873280289   16.85138918506442   11.07166082342447
H         2.31005151505769   16.42583363504184   10.37735211240263
H         2.71693142314644   17.84030379683191   11.38722909955049
C         8.00635580627846   17.03315845189017    6.59371245554099
H         8.88300263290568   16.45046198971717    6.31747337855602
H         8.31261761763668   18.01091731246949    6.97127474741268
H         7.36818704869703   17.17724492540735    5.71331085752691
C         8.09670301303325   19.48966706640298    9.51330516565606
H         8.41951748445483   20.39254158140411    8.99680869228010
H         8.92341503556129   18.77080447569721    9.54496918487878
H         7.79264337729446   19.73171049728182   10.53321803708374
C         4.90873586168135   19.50840180152397   12.08051922543430
H         4.27495574307905   20.17689510578232   11.47199901543923
C         5.79469193540934   20.33853472719353   13.04446437810321
H         5.14058625403199   21.09849339116919   13.50448196502517
C         6.37999565575090   19.49265994207190   14.19234930038913
H         7.22325969081908   18.91347489991555   13.79750761965956
C         5.36096587510931   18.49296023437276   14.79349068017286
H         4.60402507002996   19.05558060222490   15.36357684235849
C         4.67168246897846   17.76528768458306   13.62635149382463
H         5.46056208270128   17.27824495432963   13.03779910424780
C         3.59578276911439   16.75152784777157   13.96992691940611
H         2.68548421889039   17.28038759911481   14.26812340891687
H         3.91942414853256   16.09070579055991   14.77709708461438
C         6.53923576508418   22.07359730709631   11.61562423372018
H         7.48331126742757   22.52633840416409   11.31888432111896
H         5.95253198940404   22.79658339632587   12.19389965119805
H         5.97889480230139   21.78943504905456   10.71867152311831
C         8.02709851638976   20.08478889612474   15.81210321314486
H         8.26062589847832   20.93877011374271   16.44556086986208
H         8.82779544260219   19.94290989867678   15.07949440013072
H         7.92734192634836   19.18763179043879   16.42702282372332
C         5.41021683670496   16.99741982858413   16.68045059195977
H         4.44568280123695   17.49463343618171   16.87319431124263
C         6.25207846502587   16.99436490736648   17.97933765357084
H         5.58378315676654   16.59035723984341   18.76195569706798
C         7.47295885851977   16.07268814264971   17.82379848903164
H         8.11719339654395   16.48362590810643   17.03818932462878
C         7.01249557248550   14.66490266336068   17.37035783533943
H         6.38155872405558   14.19120596588631   18.13440211535297
C         6.18892693339862   14.84706080678606   16.08594762698222
H         6.82255112297226   15.32487327184061   15.32735911282144
C         5.67971791910804   13.53928999280196   15.49122046255692
H         5.06915946442570   13.78040219561466   14.59166579514094
H         6.54984567803034   12.95125546318859   15.16870705426833
C         5.75133502173866   19.23187969602659   18.62291993762651
H         6.26948237634146   20.03628201550023   19.14220396532058
H         4.95914211458189   18.83039361354746   19.26637623892945
H         5.30839425551314   19.63074062312399   17.70535355408627
C         7.67851535328781   15.90556887012874   20.22612918846063
H         8.49370729713440   15.75129451855560   20.93206052834264
H         7.01378406136663   15.03638433183713   20.25225696264891
H         7.12707865737168   16.80455420839159   20.51568251153943
C         4.30939819878312   11.69213803846690   15.81754355854677
H         3.63427487818644   11.26131444818837   16.55446414149868
H         5.06301131167750   10.94726112149791   15.53286544996099
H         3.74910077463342   11.97318647621738   14.91362609028474
C         8.69300152829838   13.19139956928949   18.18025881377642
H         8.85813987100934   13.90449079542250   18.99482477969320
C        10.05192113832077   12.59600693200035   17.75473140049299
H        10.58136676378366   12.29847956967886   18.67658089346063
C         9.88362663751517   11.33923713443620   16.89217121958328
H         9.55522728114298   11.65018996209881   15.89333300686745
C         8.83542900333358   10.37750948990108   17.48650494719990
H         9.25249600733983    9.92703070755022   18.39642250902568
C         7.55475849070760   11.14238850160331   17.86704678622062
H         7.10140734427989   11.54053660396807   16.95103826071422
C         6.52251722235683   10.27444231425067   18.58549834784269
H         5.77002026853088   10.94252081419397   19.02919772841786
H         6.03007496714960    9.61411908261542   17.86046251292289
C        11.30628407666476   14.60410832856575   17.74380454728771
H        11.98682219392091   15.12636179489808   17.07401853282131
H        11.85266078017032   14.27689290102652   18.63693689708834
H        10.49937882381902   15.28004753826065   18.04170082292145
C        11.50562021045561   10.18710760097702   15.58033950561324
H        12.53842409537193    9.85766652099382   15.68272546183173
H        11.44145847879165   10.95167460490091   14.79875131522077
H        10.87613637132462    9.33349705326004   15.31718515165896
C         6.24183638229030    8.61669122819383   20.20703284539523
H         6.80724410400085    8.07404832168081   20.96229716158268
H         5.82571421996592    7.91062546329039   19.47736684685852
H         5.41798628953786    9.15792913254516   20.68843262046030
C         8.18212438946747    8.11773499699627   16.92574221829327
H         8.26394461789851    8.02742569457413   18.01613518490018
C         9.02039173085400    7.01549852119701   16.23720469108919
H         8.68204718742389    6.04740214941538   16.64476295712699
C         8.75978569141537    7.02600207493445   14.72439976663351
H         9.21023121303514    7.93058094675370   14.29885400356639
C         7.26002035448066    7.04474192190496   14.39507252075265
H         6.85788759795932    6.03629430707434   14.54794912226312
C         6.48146004582286    8.03141647550549   15.28323017150495
H         6.73079247632044    9.05168799143619   14.95585886551652
C         4.96862033103176    7.82227091996615   15.17579415269935
H         4.48591923756408    8.34598592321296   16.01527691675378
H         4.60437947282777    8.25696738551617   14.23858871120290
C        10.86117139614650    7.01447687692870   17.74462486301401
H        11.94501361687738    6.93775703374826   17.67774467141930
H        10.45499843186229    6.10394142597937   18.20004198548553
H        10.60451761805704    7.87732542893279   18.36602090226298
C        10.57250141702124    6.04800545178697   13.53916877370957
H        10.88242900119251    5.06402486595396   13.19187234546849
H        11.29011067703994    6.42627077808732   14.27137789476664
H        10.51489960238820    6.73380408599362   12.68712261447339
C         3.32952706875511    6.18636519185237   14.85632348710627
H         3.19351923939780    5.10920306295517   14.93092862918477
H         3.13967387479565    6.51317478103055   13.82702978648003
H         2.62334086808842    6.69029508784194   15.52801729166297
C         6.29791894172294    6.73781484584722   12.19507801514175
H         6.03042164037202    5.75708270358639   12.61179558771379
C         6.94388445261938    6.57707569393605   10.79991499930053
H         6.23002960356293    6.00787908975671   10.17747061456110
C         7.16184897075762    7.95534553028032   10.14582752970756
H         7.98348394660662    8.46411181011375   10.66516264140706
C         5.90248162847674    8.84092703323298   10.23265029538000
H         5.21316638534382    8.53297041469298    9.43475215246812
C         5.21741742379465    8.73734009991080   11.60299208659638
H         5.85595392345120    9.26592911437685   12.32466296596702
C         3.81990715047224    9.36118044614154   11.59623518655956
H         3.73535546983943   10.13799580804797   10.82550565441356
H         3.09493551990907    8.56767154329127   11.37613182717512
C         8.15645964651523    4.59421460117828   11.30508649651113
H         9.09441945176344    4.14525918081726   10.98127688575915
H         7.31824820086476    4.03980912773858   10.86815459964111
H         8.10111953473226    4.55744222076649   12.39614991726454
C         8.83264548973219    7.62568833953165    8.47597556282608
H         8.89377685253335    7.56739519644897    7.39035572403840
H         9.22080647618714    6.70882093448128    8.92292587721176
H         9.41177042865198    8.47987034327777    8.83707775109174
C         2.19276802404211   10.13760113864753   13.12233568842408
H         2.11621333361367   10.46003436386835   14.15798894914122
H         1.62002697915478    9.21483001731206   12.98440125947045
H         1.80449499023018   10.91587315557645   12.45931439848812
C         6.55968432498763   10.63777583262326    8.77201264069419
H         6.79670558206586    9.76141658673672    8.16127099070875
C         7.79283940851804   11.56183773858268    8.82042840003731
H         8.14464018382334   11.70096196284879    7.78697683067680
C         7.45891767653592   12.96266182469949    9.37077486393222
H         7.26735808981187   12.90570230559342   10.45260759281800
C         6.20251416682963   13.50980478124025    8.66253043419907
H         6.46087848074918   13.71698468799157    7.61936301305744
C         5.06997970705072   12.46900627859598    8.73224319088839
H         4.81989161204228   12.31762680369900    9.79721691036414
C         3.78786248078662   12.90760896042648    8.02729511069552
H         3.10970194681515   12.04362550346344    7.99820740019768
H         3.30833070110980   13.70724160208622    8.61104121010638
C        10.10623728988690   11.20750988806714    9.24886253979205
H        10.72764781887738   10.62583437569955    9.92819416957221
H        10.31461124627851   12.27067614991281    9.37391793103181
H        10.32374950032738   10.92231761477452    8.21245574161802
C         8.84346951359212   14.75032321380275   10.10856093808577
H         9.64502804091014   15.37105046611569    9.71273800566365
H         9.16510645560616   14.27920985809649   11.04515399118631
H         7.96378095828692   15.36084307053351   10.30786483222512
C         2.89928660300099   13.63794280787306    5.99289495462687
H         3.21825808395632   13.97150621342354    5.00734960800027
H         2.31665583136937   14.43012959619479    6.48030326676845
H         2.26700151479443   12.74800155312931    5.89110149707950
C         1.52733403089601   15.18730008215604   13.00398516443606
C         1.46656228150211   14.21801098859782   14.00229116984755
H         2.39366500126056   13.81129637573951   14.39289149838217
C         0.24541618739952   13.77202077928419   14.46626799443771
H         0.20124408101783   13.01454659546960   15.23453185650744
C        -0.92524618050512   14.29548176325562   13.93800399250777
H        -1.88243168116728   13.94417357968374   14.29346669473698
C        -0.86824498666541   15.26414914714202   12.95133261675532
H        -1.78065614955777   15.67005788849907   12.53986227180946
C         0.35525552924056   15.71384378070608   12.48154217426153
H         0.39249981714489   16.46690131237500   11.70873651057392

