102
CSD_code = HOCXUT | q = 0 | S = 0 | Stoichiometry = C40H55Cl2N2O2Y | MND = 7
Y         2.26601289068645   11.05527478513084    2.99991365328665
Cl        0.17787775501938   12.45974715348335    2.67375545506680
Cl        4.55154793418092   10.28958458625947    3.79364406923021
N         0.96849766844635    9.14565413716703    4.36869461814706
N         3.08358570981262   11.38942843025987    0.47338802538652
O         2.11519190398996   11.99054858634854    5.36540939730185
O         3.39148027081394   13.32356064936257    3.03273105335144
C         1.72572961394366    9.27994089662179    1.69063546426975
C         1.04305652946180    8.15976782364670    2.19933237707130
C         0.71450101927297    7.06592852254876    1.39244632104639
H         0.18886734101265    6.22090571018039    1.81724328114162
C         1.06089870050214    7.06352343759674    0.05330853992144
H         0.80773216936125    6.21885913581205   -0.57041283487076
C         1.73263335607920    8.14669730007143   -0.48403405235327
H         2.00574680828066    8.14933902636332   -1.53103340316840
C         2.06023734529174    9.23955651170494    0.32461985493359
C         0.68097766209963    8.16611283915051    3.60565728273395
H         0.14579263791928    7.28765228828954    3.98635607185185
C         2.76638020243158   10.37823094558018   -0.23523461696533
H         3.01804608017202   10.33291688985210   -1.30197006881031
C         0.59584697794072    9.11100112606220    5.72718866780492
C        -0.64609042123597    9.63560041478269    6.11165084518005
C        -0.98129075647179    9.61244434380250    7.45827937374995
H        -1.93563784043337   10.00068031601210    7.77724123571015
C        -0.11171166708703    9.09270889702790    8.39902332403003
H        -0.39195925799309    9.07741848655696    9.44214370442536
C         1.11559610763708    8.59142947471941    8.00655748211339
H         1.78487484859298    8.18876721980309    8.75029345669088
C         1.49389595318850    8.59352279120371    6.67131409353210
C         2.82537627131385    8.03273009743987    6.22264146867485
H         3.12997007929067    8.56876164386109    5.31508298960859
C         3.93728276246707    8.20194429096412    7.25904748911634
H         3.95927115682594    9.21460634550199    7.65319411647855
H         4.89618040536916    8.00569489009296    6.78617339046640
H         3.81726009550513    7.50431481678999    8.08543936084857
C         2.68200046331643    6.54543408369110    5.88131002618123
H         2.30367815906218    5.99534921031747    6.74167495843947
H         3.65071137159409    6.13617294321327    5.60406728712041
H         1.99986545855122    6.39496452140701    5.04834505282249
C        -1.59374249030402   10.18611858819852    5.06870848779891
H        -0.99402456105686   10.56483500987089    4.23170499371130
C        -2.50636033215536    9.07095999024502    4.54666709508333
H        -1.93400141972243    8.29181222490125    4.04954345499088
H        -3.21566155030297    9.47980117261867    3.83076714564353
H        -3.06048081436412    8.62093796060099    5.36906303252272
C        -2.45723655536543   11.33976775842146    5.58136808622662
H        -3.24326192939679   10.98210458393979    6.24331887208815
H        -2.92603997424501   11.83568339491390    4.73527972341120
H        -1.85810642258613   12.07581349493341    6.11100664122957
C         3.77076602016402   12.46462229861669   -0.12661594049031
C         3.03841386959211   13.52564839388568   -0.67502364746994
C         3.73471537744418   14.57034992026853   -1.26636321186226
H         3.19193954550790   15.39149215451122   -1.70783182217060
C         5.11681179978438   14.57054979143689   -1.30784370014774
H         5.64255588146951   15.38780840486447   -1.77964230816060
C         5.82634143237490   13.52620792465140   -0.74426759397253
H         6.90444525512604   13.53817136038887   -0.78116515978654
C         5.17163595251919   12.46078186823841   -0.14226536287999
C         1.52696950857824   13.50402356105954   -0.63685042139476
H         1.21748602650087   12.91065518411052    0.23242853414534
C         0.97702719994263   12.83004336853979   -1.89848009960568
H         1.32799547311512   13.34982658382924   -2.78873850854301
H        -0.11015909799432   12.85462116043132   -1.88571186058854
H         1.29216340372305   11.79109529822161   -1.95877787231998
C         0.90812455238189   14.89610117548987   -0.49761104171730
H         1.41217140130579   15.47644614983181    0.27140299046619
H        -0.13652121244501   14.79553266412561   -0.21387265504504
H         0.95359198928465   15.44500174242152   -1.43604969149316
C         5.93590200609368   11.30605931180092    0.46555342519744
H         5.31339556811309   10.86271390621149    1.25261962945906
C         6.20510400385313   10.23384507249853   -0.59568540306958
H         5.27689782047128    9.81262312570436   -0.97410972917358
H         6.79284662944118    9.42688781139721   -0.16422032591536
H         6.75733279240619   10.65979063357740   -1.43202286737148
C         7.26136396716243   11.73112167279186    1.10047418097988
H         8.01621283342040   11.93199435827368    0.34297992349235
H         7.62570003313466   10.92919217154930    1.73773461315759
H         7.13743493651887   12.62015280257750    1.71410454808427
C         3.03294846428489   11.80225401863853    6.43748451172622
H         3.98339130376502   11.46755171492167    6.01897239731327
H         2.63316792759120   11.03423167597805    7.11449718949696
C         3.10148380998520   13.15430768221404    7.15969291710122
H         3.91845964454087   13.76024240986913    6.76886827950805
H         3.25893461709259   13.02175394767476    8.22781658903400
C         1.73903031596954   13.79434568121090    6.84146941099672
H         1.14981757576188   13.97699199195796    7.73761679027301
H         1.86295591461559   14.74225714754306    6.31895519887120
C         1.05876184645649   12.75451696978332    5.93873444272914
H         0.42832989888701   12.08720919625636    6.54295719942142
H         0.46947842383414   13.18347726755666    5.12677482134440
C         4.72582342729173   13.61155660343251    3.43633721602344
H         5.34057939834213   12.73642277555377    3.22676022387764
H         4.74281540874725   13.81060993141321    4.51803066409683
C         5.13168069405690   14.86977043033991    2.65851405802367
H         5.77772885905856   15.51009927124548    3.25616258793855
H         5.65675998013992   14.60420268065332    1.74269930311337
C         3.78572933421890   15.53639765996842    2.32769482749823
H         3.64575668859432   15.58725278027687    1.24935704841646
H         3.70647847226535   16.54188936980436    2.73653242061717
C         2.75566334422565   14.59521454910795    2.96393409210570
H         2.50896116959925   14.93284529988221    3.98134721041845
H         1.83460079431170   14.48432932603442    2.39169563439586

