50
CSD_code = HODGAI | q = 0 | S = 0 | Stoichiometry = C17H21CrNO10 | MND = 6
Cr        4.72834673711827    4.13266652801963    5.24162954430082
C         6.15941765359164    3.25215195294906    4.44524861167061
O         7.03389934749483    2.71580212144051    3.92366861646427
C         4.81672826246693    2.91916155261391    6.67237752858231
O         4.90886722001411    2.10919183531106    7.47564470681064
C         4.54153995212467    5.32705694616776    3.82658571318494
O         4.38318094939129    6.08870398134189    2.97924320633864
C         6.00901179253132    5.25676745411876    6.00464319855354
O         6.91740180171128    5.86513882642553    6.36830753076652
C         3.69681303104370    2.85824875760427    4.34863607830680
O         3.24051807965473    1.99553325167077    3.73546420202190
N         1.87572710848748    4.91461431983933    5.63169867445482
H         1.13347034347094    5.60000659231289    5.77509091960066
H         1.64233497315431    4.02021642429945    5.22948731017383
O         1.98756135454021    7.34684963522600    6.37092891401626
O         2.16169261148639    6.89376655055212    8.57232184808139
O         3.01301529923771    4.28488851292054    8.41401642883744
H         2.14856222445948    4.61604916119096    8.69806836192967
O         5.13870514448602    6.51164459155611   10.39334509708664
O         6.20872074672251    4.51778820838777   10.63871832070505
C         3.12112763024708    5.22715143094677    5.90620218424111
C         3.20580693154986    6.62244797608232    6.50982892643800
H         4.00732151485715    7.17465665975841    6.00277069792136
C         3.44873734420191    6.62724425053681    8.05037055956217
H         4.15007037368812    7.42515612776804    8.32713116295813
C         3.93546214027577    5.31306377254223    8.65892981472856
H         4.87579610030353    5.01599386959632    8.18643737959196
C         4.18448578640479    5.50111460339177   10.17156088910133
H         3.24718212059340    5.78017364411082   10.66545671687156
C         4.83656199660455    4.24455005385238   10.76474629092305
H         4.55277126999919    4.10846414698947   11.81712579557468
H         4.60769945949318    3.34372715830267   10.19604084441472
C         6.38036761922310    5.91084441553168   10.78177043204589
C         7.50350342110043    6.36937690442660    9.85531495357357
H         7.62070758769037    7.44560890924266    9.93149581397304
H         7.26706644865583    6.10591956849772    8.82871887278518
H         8.42670307536724    5.87652808120831   10.14256920141185
C         6.67554427286179    6.29356659184884   12.23771039464335
H         6.75795590187480    7.37293081652332   12.31694640759884
H         7.60478862794131    5.82881290616519   12.55275703774605
H         5.86965285739273    5.95462661942384   12.88347064511540
C         1.50445076908208    7.73492241250006    7.65171065242220
C         0.00057133948391    7.47647393204826    7.73392857752895
H        -0.37588629955726    7.83060528238939    8.68804768058596
H        -0.20115218498742    6.41085890866964    7.65169359755744
H        -0.49862795695655    8.00288352965317    6.92633794064013
C         1.82207658742212    9.21277327663734    7.90248270465006
H         1.51656226500201    9.48396246937364    8.90861784443199
H         1.28923846027760    9.82243250745983    7.17918461390750
H         2.88833990685459    9.39228197104087    7.79461655396828

