91
CSD_code = HODMES | q = 0 | S = 0 | Stoichiometry = C45H39NO2P2PtS | MND = 5
Pt        4.36666965628932    1.58901974696957    5.82194329528793
P         3.06700545581673    3.43515804589712    5.32978046410035
P         4.83800551367939    1.97023633622669    8.02824356219360
S         1.52908826280373   -0.08027209248783    4.89768538967857
N         2.88269197003414   -0.84223141565222    5.27807509023951
O         1.66896199263180    1.38149854468311    4.98099672050044
O         0.46781288715394   -0.62287368705374    5.70164690184327
C         4.22171840318800    0.72023898397756    3.89950104640033
C         4.03825570743853   -0.31013109907931    4.88955467720016
C         5.18788766691512   -0.36981817888175    5.76396687475883
C         1.14774775056211   -0.51469606130856    3.18981662751284
C         1.10148125021745   -1.86307229661782    2.89117885491561
C         0.84754972446081   -2.26454559332376    1.59094112357262
C         0.64954601873279   -1.31316484428770    0.60126601999441
C         0.70074535643280    0.03619573321222    0.90969210600786
C         0.95030341126714    0.43810311621515    2.21255150844667
C         1.59489758081431    3.85300468665049    6.30708977017779
C         1.23644142660160    3.01132883910497    7.35120847275678
C         0.12968454743348    3.28951440114678    8.13249816517543
C        -0.62940941688210    4.41906854056374    7.87535259402581
C        -0.28748204609692    5.25606669378245    6.82532072522426
C         0.81572529962168    4.97491388209678    6.03839720115195
C         2.57055522068563    3.83399600805219    3.62477011211075
C         1.24129050918935    3.76724809675742    3.22258077893252
C         0.89591232054924    4.05284371290375    1.91229869675637
C         1.87241443472117    4.39017259366785    0.98992303007270
C         3.20078334208966    4.43657037898240    1.38094962250400
C         3.54884288851792    4.16029007547255    2.69036226667645
C         4.19491252116383    4.86242106824606    5.65379228540773
C         5.54133794841888    4.59952996914493    5.40977422979127
C         6.50614692832413    5.56898276816705    5.59898321732060
C         6.13654186476966    6.82321831769235    6.05677801371519
C         4.80673017639299    7.08719433420756    6.33095253871023
C         3.84029062781629    6.11573366135957    6.13085428874977
C         3.69862112494048    1.11951939886730    9.15897751200211
C         2.88713957262403    0.12421590550314    8.62050808724846
C         1.98690467989753   -0.54967555371934    9.42659753204460
C         1.89741423187167   -0.23756349592868   10.77330580123713
C         2.70604710609287    0.75099659061531   11.31399242803256
C         3.60299647260585    1.43366124205671   10.51240362313381
C         6.48208401650637    1.30822904732611    8.45946223682771
C         6.77999062736628    0.68204824013260    9.66190885218912
C         8.06331058857509    0.21784353107931    9.89763977415043
C         9.05303445025241    0.38062730928633    8.94328481797609
C         8.75913710993390    1.00147936604169    7.73896923294529
C         7.47776342727038    1.45692210773025    7.49708430917063
C         4.94316869817603    3.65852065194786    8.71921198145947
C         6.15650215203905    4.33557940589111    8.78475044913965
C         6.20301820646980    5.63947780743235    9.24289874080033
C         5.04147869012277    6.28452579088760    9.63118420193895
C         3.82850664417630    5.61969441040927    9.55838703587190
C         3.77728615227088    4.31628749094966    9.10288527265339
H         5.19848858440170    0.75052341056260    3.41177219636912
H         3.40083959974070    0.92021304028277    3.21894664697370
H         6.16752932632536   -0.40686666600902    5.28794460951893
H         5.11000248562001   -1.04491646037671    6.61285333193946
H         1.26504144883224   -2.57160616087045    3.68803434600109
H         0.80601723013779   -3.31570330543500    1.34627012691506
H         0.45543334389001   -1.62614332067359   -0.41444096135957
H         0.54821804521059    0.77730330134201    0.13848344030082
H         0.99623135951215    1.48185412297547    2.48016744270509
H         1.81397638642313    2.11372538807695    7.51760685609830
H        -0.14256590420150    2.62012250369295    8.93570542904434
H        -1.49596976312435    4.64057598397576    8.48131292615829
H        -0.88922764806833    6.12837201421261    6.61212723667339
H         1.05538639354276    5.61637402101201    5.20078842921360
H         0.48681926927110    3.46939397623498    3.93543508955510
H        -0.14030145769508    4.00218973323557    1.60878396895151
H         1.59998592488936    4.61016668959940   -0.03201561828947
H         3.96727128146326    4.68893583434790    0.66241024990419
H         4.58610570618430    4.19789480633904    2.99250013259197
H         5.82169244928634    3.59819631167204    5.07409235247698
H         7.54512742381971    5.34950417212615    5.39926298535667
H         6.88426495898545    7.58709273853395    6.21113748416678
H         4.51650961243316    8.05806279102545    6.70591803041820
H         2.81152655806156    6.33827118948452    6.36791901858773
H         2.93894419574857   -0.11689557880150    7.56390119095865
H         1.35066526844904   -1.30425892798313    8.99042487894353
H         1.19255168757482   -0.75866325080735   11.40464860953569
H         2.63247693869414    0.99571322721047   12.36407618566201
H         4.21944248443051    2.21869432070277   10.93008817807796
H         6.01067200563683    0.54456374804391   10.40769724417085
H         8.29079248519195   -0.27529981144799   10.83148242182265
H        10.05189192264893    0.01675711022081    9.13375592534493
H         9.52864582071002    1.12156121751501    6.99026859086513
H         7.22044037920797    1.92498618123690    6.55234682635469
H         7.06696366567389    3.83834126424510    8.48302644224141
H         7.15114338026491    6.15417202240511    9.29592709656405
H         5.08114805731890    7.30278925388466    9.98848766172194
H         2.91727750683116    6.11769762073042    9.85592881186847
H         2.82895043364145    3.80177297443949    9.04624602489249

