79
CSD_code = HODNIX | q = 1 | S = 0 | Stoichiometry = C38H36NOP2Pt(1+) | MND = 4
Pt        5.55207450689599    6.53648163051142    4.78793946738184
P         6.12469722426177    5.81963081422725    6.88724365381998
P         7.56413742897887    7.22979389538223    4.00389623097515
O         5.01302976140085    7.26978179915914    2.98906075006060
N         3.44676013475117    6.00099560813602    4.90250636385546
C         3.73920501203120    6.86175880804179    2.65470907019940
C         2.81898055155237    6.87010394793318    3.88397150711318
C         7.02110693198675    7.12330206493109    7.77516062677193
C         6.54558771118030    8.41428562344019    7.55008256384053
C         7.12473870253738    9.49296383067431    8.18801270482906
C         8.19138144981920    9.28649032256360    9.04978785515556
C         8.67853447755478    8.00765907866948    9.26045213617251
C         8.09878799633223    6.92207515068002    8.62567141821003
C         4.71830474413353    5.44579113124117    7.98459562294562
C         4.29621510581969    6.29616833534611    8.99987596707101
C         3.18955845551554    5.96194825881217    9.76273882741030
C         2.49797007276867    4.78770900458548    9.51580025318369
C         2.91229525411683    3.93853202915241    8.50014286241927
C         4.01450194216856    4.26740991041074    7.73474582522825
C         7.09626447388224    4.29432175065880    7.01086144620546
C         7.33594448622822    3.67249774733208    8.23337352058357
C         8.07507860957360    2.50424153255397    8.27305638376723
C         8.56367523475132    1.94675832891933    7.10092676275168
C         8.30376906860895    2.54935817493154    5.88027910228291
C         7.56817511090632    3.71983517251535    5.83537557214736
C         8.94739549812497    7.51982738030646    5.15181833101805
C         9.27903626141415    8.80378914847920    5.57048628571494
C        10.33448437683145    8.99692429726304    6.44381238406306
C        11.06228634540871    7.91453072994373    6.90847042078259
C        10.73097704475783    6.63237936442673    6.50003048640852
C         9.67739097804545    6.43361092445795    5.62838354264338
C         7.36733725399766    8.80636295901939    3.13846874705442
C         7.99533381692301    9.08573798565641    1.93269513873570
C         7.80663418087432   10.32025876265327    1.33401545311991
C         6.99568478071547   11.27043454643821    1.93134103918044
C         6.36144000027650   10.98868548720889    3.13201901263661
C         6.54500824350962    9.75916759182234    3.73357000976950
C         8.22423002847347    6.03598642675665    2.81549619678515
C         9.55385875220644    6.08335761499012    2.40349453443853
C        10.01672375478454    5.16909883179341    1.47414185881191
C         9.16364618774526    4.20602026965296    0.95754616125471
C         7.84129497096094    4.15364519185403    1.36924563503303
C         7.37236029560362    5.06699908173066    2.29559916670810
H         3.34592839243193    7.55398016474646    1.89517797404627
H         3.72991159544575    5.84552098239949    2.21178988912085
H         1.80807332554803    6.53104085422439    3.63081879166876
H         2.76864873707971    7.88686272559974    4.28390823756817
H         5.70876576011655    8.54969903009676    6.86930278987708
H         6.75055878079149   10.49120333048547    8.01815110643424
H         8.64577069262997   10.12544772023318    9.55372649887100
H         9.51454179483711    7.85223275472552    9.92504076742432
H         8.48930513212948    5.92822596963924    8.78546235385856
H         4.83630753463297    7.21030973625125    9.19976726830285
H         2.86943461667221    6.62051787792803   10.55561787422779
H         1.63858502108422    4.53084171268016   10.11532270859074
H         2.37713119719777    3.02046689667840    8.30982163879606
H         4.35249953192906    3.60593029266849    6.94600094362142
H         6.93174282332080    4.09606531629996    9.14259882830606
H         8.26629727587512    2.02246791502212    9.21986468329101
H         9.13820607143003    1.03413183957377    7.13943339246190
H         8.67004070075157    2.10619978575055    4.96638774428528
H         7.34178076539814    4.20088590734269    4.88867412585079
H         8.72015392914051    9.65154531631518    5.20185844968644
H        10.59308431754667    9.99690517018422    6.75693403722933
H        11.88980452175080    8.06959267246036    7.58342850153531
H        11.29820206962759    5.78595524140878    6.85680861005281
H         9.42797431367345    5.43452818876218    5.30151151256183
H         8.61674532737849    8.34164867075659    1.45599437340279
H         8.29013475674658   10.53775352831899    0.39368566853230
H         6.84894923288095   12.22872688674344    1.45691926980024
H         5.72025040171213   11.72698527115431    3.59022130815085
H         6.04132405572798    9.51213875248797    4.66084527598383
H        10.22035607962487    6.82853140891824    2.81560275925498
H        11.04596332805933    5.20772465778037    1.15112198384613
H         9.53084543509772    3.49571693434953    0.23276657270490
H         7.17952214131710    3.40242415401447    0.96513814204250
H         6.33674674255918    5.05069229500269    2.61860738431697
H         2.95517472074122    6.07097290148696    5.79364199785884
H         3.37624165872966    5.02791659223604    4.59324563787795

