53
CSD_code = HODTEZ | q = 0 | S = 0 | Stoichiometry = C23H19N7O3Zn | MND = 6
Zn       -0.62036353743892    0.98465500363014   13.19969375433979
O         0.24002581204126    1.36261296433556   14.89287651695168
H         0.49779018270406    0.58073108484001   15.38088838917487
O        -2.47360827147059    1.51015523064644   14.60135845064690
H        -1.72643628693339    1.79030766205532   15.15266292615155
H        -2.82324517505641    0.71385807132772   15.00750891692497
O         1.17097278456178    0.72693955745887   12.07353498705817
N        -0.94104014663107   -1.14384238414114   13.45993696969230
N        -1.88053625358240    0.65297705917021   11.58803471030684
N        -0.77969383703485    2.98433806372520   12.53209794748437
N        -3.14205438649533   -1.09736536449847    9.14821873347176
N        -4.00966021504071    1.48677091802370    9.25883885925844
C        -0.53984171490342   -2.11940145103670   14.26852304198005
H        -0.01706325343260   -1.81666710172848   15.16626547410773
C        -0.76519111345164   -3.46595243693605   14.01661794308927
H        -0.41634019659728   -4.20186998157991   14.72445239228010
C        -1.43174392979340   -3.86414822903272   12.85990106633298
H        -1.60890121238406   -4.90993383876813   12.65431382957510
C        -1.84578800835255   -2.86854260358888   11.99824258915550
C        -2.51714445420391   -2.82543174121543   10.72188859887115
C        -2.97804397738501   -3.81628965282693    9.87401027322959
H        -2.90122420511540   -4.86285376026251   10.13657185649938
C        -3.53257852964567   -3.41689049212038    8.66680262896710
H        -3.91257120755920   -4.14546005543108    7.96675096451506
C        -3.57245229194672   -2.05994661873939    8.35596189728560
H        -3.97103134414846   -1.72781998543738    7.40567498032173
C        -2.64987195170169   -1.45733528549281   10.32212065883244
C        -2.08309195692414   -0.62192982547574   11.36079568127081
C        -1.57280299847241   -1.52113516079964   12.35322795426479
C        -0.30795963825782    4.17475009293230   12.88063222853267
H         0.38279600375426    4.18509858373672   13.71148669655367
C        -0.66485312931771    5.35168188625768   12.23397796761776
H        -0.23844830820808    6.28671219276324   12.56355046872731
C        -1.56929099907518    5.33082939316928   11.17460543681217
H        -1.85508913926772    6.24322325001482   10.67098553844279
C        -2.08108333717952    4.10144869940624   10.80774099273742
C        -3.03088498979921    3.62476095660531    9.82940782863058
C        -3.81781153404887    4.27526905582749    8.89680793409995
H        -3.76566777184363    5.34773844197345    8.76588724685964
C        -4.68871527797234    3.50098793782881    8.14332002315984
H        -5.32527930316747    3.95410434640611    7.39845926396317
C        -4.75115759155730    2.13006801589282    8.37730244739829
H        -5.44730806982186    1.51147863299514    7.82514494394358
C        -3.14269139759033    2.20279007826532    9.95476294256879
C        -2.24208277057855    1.76611996972315   11.00326382835402
C        -1.64124727698704    2.96110218544721   11.52483474798132
N         2.42407746355408    1.86322954138234   13.56755708682456
H         3.31883779275329    2.22911959436455   13.83855024410227
H         1.60403344003296    1.77877330939442   14.23469225562649
N         3.29985060282638    1.20525712121642   11.53176291617086
H         4.08583527141786    1.81980650703573   11.65064949719691
H         3.09712871302611    0.89126647731889   10.59820326417046
C         2.23984292373701    1.26225408390228   12.39614120747651

