81
CSD_code = HOFBEJ | q = 0 | S = 0 | Stoichiometry = C42H34O2P2Pt | MND = 4
Pt        2.48939809145016   14.18439936137931    5.91257829656750
O         3.45526916449311   12.54573549799513    5.27737633235398
O         3.44797905911253   15.10681352612558    4.42689848540701
P         1.58843400737039   12.84704284067205    7.50965533811938
P         1.53496852073190   16.17142030465499    6.40753139760544
C         4.21731549606434   12.87730748924230    4.22605154090535
C         5.00256373707862   11.93600440971058    3.57250608492875
H         4.99815529507741   10.91478225996847    3.92675387976545
C         5.77356988535499   12.31922851366295    2.48659182571208
H         6.38284793975288   11.58265724069117    1.98171046939422
C         5.76680608672190   13.63115622775065    2.04831192015368
H         6.37047486632338   13.92199944387194    1.20002231350306
C         4.98961750496008   14.58294423667640    2.68917783779162
H         4.97469854971860   15.61242542968460    2.35990881632033
C         4.21178193118700   14.21580871021223    3.77987176101715
C         2.86943924870920   11.73589445495273    8.16614461548644
C         2.60986301232930   10.43822904821395    8.58797257046499
H         1.60772856567551   10.03786467523130    8.52755197471100
C         3.64283971626890    9.65269604182640    9.06921325883095
H         3.44184234556712    8.64039595869936    9.38877079680706
C         4.93171292906323   10.15575233608966    9.13253957935528
H         5.73509854178589    9.53471193473376    9.50073722357692
C         5.19365370050480   11.45036026461922    8.71246703808161
H         6.20091012449746   11.83840907906600    8.75120808438708
C         4.16582097031182   12.23774083019494    8.23011421569599
H         4.35793814669426   13.24380694913485    7.87175396849705
C         0.31086104658311   11.71036258708690    6.88889342243236
C         0.32667473038821   11.43294559444912    5.52514628472126
H         1.08133172419839   11.90267100609749    4.90383478607624
C        -0.59835061726377   10.56079228518684    4.98121716439327
H        -0.58133925764744   10.34653931993626    3.92294701605559
C        -1.54651673403273    9.96335781998429    5.79618740130902
H        -2.27195107557271    9.28366113960167    5.37381929816008
C        -1.56515792229157   10.23553826122886    7.15504074751040
H        -2.30275961291099    9.76620604338094    7.78995026975593
C        -0.64043903377202   11.10524738276968    7.70521011198825
H        -0.65947835162057   11.31894895738219    8.76516364987178
C         0.83606890245198   13.52293402861269    9.02768851757356
C         1.55349142696558   13.60445997538993   10.21577138622008
H         2.56220792882700   13.21895641575191   10.25954319505766
C         0.97585950269072   14.16583109759018   11.34017463624172
H         1.53750263977993   14.21864651794077   12.26116360432232
C        -0.31791251584486   14.65547979153883   11.28895081697763
H        -0.76877988792117   15.08669996256524   12.17024779685726
C        -1.03213668848851   14.59302213688244   10.10316206701327
H        -2.04000327144457   14.97906250926922   10.05622011718977
C        -0.45746671785563   14.03674427085407    8.97701509384122
H        -1.01479458469940   13.98969180115911    8.05190508196326
C        -0.24644565541146   16.33247989318491    6.07060236144607
C        -0.89714192588446   17.56189321377494    6.11485121072266
H        -0.33623727410884   18.45691547196089    6.34819363850827
C        -2.25174666721353   17.63359245501002    5.84493115528974
H        -2.75791385184774   18.58719704865159    5.88269512579487
C        -2.95986402179834   16.48685708699289    5.51951323532046
H        -4.01720984626278   16.54931745757659    5.30875218671512
C        -2.31037551572593   15.26503612993449    5.44798949775092
H        -2.85742943014312   14.37383265736457    5.17675780777796
C        -0.95589494398817   15.19026948566888    5.71866168538637
H        -0.42300027015263   14.24661977730257    5.64555440916678
C         1.75350965737840   16.63718902977176    8.15379390896121
C         3.01463482455559   16.35510244268393    8.67645165898375
H         3.75403257663085   15.89916149849022    8.02479864538868
C         3.31204053280219   16.65526743012692    9.99071036302276
H         4.29293758037856   16.44107094062106   10.38879865661695
C         2.34347170313812   17.23060155526775   10.79900359682018
H         2.56995712307145   17.46713157155196   11.82801548229980
C         1.08381894358120   17.49497419611953   10.29003761816294
H         0.32756189215289   17.93382409819774   10.92419502254463
C         0.78368069640941   17.19979392913728    8.97095437181511
H        -0.20429626111501   17.39972005200484    8.58347032403988
C         2.19443640339341   17.59753002311579    5.49805714627724
C         1.93289979569686   17.63765409365560    4.13046813724185
H         1.33746150198458   16.85321965686225    3.68366783088432
C         2.44991358279896   18.65769840853545    3.35701827390542
H         2.25485616201175   18.68187798002202    2.29496588120224
C         3.22891274112490   19.64428010096239    3.94210993204454
H         3.63823505441777   20.43940354895743    3.33630553206220
C         3.48945600493529   19.60687263123294    5.30118031955391
H         4.09948702623512   20.37378247874563    5.75638674630184
C         2.97871673287881   18.58389975789351    6.08190749680438
H         3.19189606072666   18.55294792889078    7.14152865022916

