81
CSD_code = HOFBIN | q = 0 | S = 0 | Stoichiometry = C42H34P2PtS2 | MND = 4
Pt        1.23997393681351    2.18124439164798    4.29386839242955
S         2.45184656102098    4.08485525888344    3.74422085917034
S         2.19458266303854    1.13095578620286    2.47334383777330
C         3.27043001757101    3.65275915000358    2.25758362702710
C         3.17041992293940    2.37288507690959    1.71540153847273
C         3.85564496999002    2.06493475272876    0.54480508864937
H         3.76900505093862    1.06663409013698    0.14035290580863
C         4.62584096362818    3.02313869980829   -0.08218383612340
H         5.15193060427162    2.77635475004992   -0.99283050537591
C         4.72177769338599    4.29973777374880    0.45552219778281
H         5.32267873367580    5.05177198397125   -0.03473381201171
C         4.04947352785915    4.61230372898521    1.61935235128164
H         4.11456788336605    5.59963809005544    2.05350183042043
P         0.26459557196082    3.45657526695890    5.97103701497199
C         1.44008958556272    4.62979013601069    6.71746108998029
C         1.14745170847845    5.96224126393982    6.97342608240535
H         0.17796631520980    6.36618150080458    6.72050216812433
C         2.11125943100569    6.78143954222574    7.53629540752923
H         1.88374469003865    7.82022710574688    7.72699790361786
C         3.36387256932419    6.27949888034429    7.84520826901548
H         4.11271755084787    6.92611815497514    8.27848887227839
C         3.66231439470283    4.95158407735164    7.58377600427345
H         4.64427497422743    4.56209650150519    7.80931407879066
C         2.70593708784373    4.13165622150134    7.01783914099588
H         2.93467366106718    3.09991980121294    6.77723970438529
C        -0.53812168064274    2.74752288194307    7.44998220310180
C         0.13109988846937    2.65467848926949    8.66534306435242
H         1.13865556440799    3.03443942034683    8.75501851224137
C        -0.49424735385691    2.09070660558401    9.76239065227520
H         0.03021186352955    2.03169954794277   10.70477231591487
C        -1.78740563086724    1.60755948112654    9.65775684138919
H        -2.27485016302701    1.17333417301106   10.51798405487902
C        -2.45415564955552    1.68356088941303    8.44580576565687
H        -3.46229599875413    1.30565680018676    8.35549070590866
C        -1.83356730938867    2.24648902350331    7.34751950705424
H        -2.35891153920901    2.31006317187899    6.40526070531071
C        -1.05198571209701    4.51733896903678    5.29920221267968
C        -1.97950590148798    5.16910017913586    6.10788036765057
H        -1.94761078500474    5.03734910228791    7.18101427909770
C        -2.94464642105013    5.97654003601217    5.53405732991078
H        -3.66213611288537    6.48352278774343    6.16305655452539
C        -2.99334508273351    6.13833053003983    4.15800726306955
H        -3.74996150849780    6.77072686875620    3.71724743033075
C        -2.07443326034449    5.48949073464297    3.34972045000629
H        -2.11156503180854    5.61330334815626    2.27760059362333
C        -1.10738477409444    4.68143819942385    3.91899141412885
H        -0.37683781583071    4.16833929046447    3.29783981548594
P         0.22378834643704    0.17783815182042    4.81845176334526
C        -1.57330278132616    0.01817523153212    4.58734796724159
C        -2.23642899278032   -1.19281108910341    4.76305937651786
H        -1.67767920095951   -2.07775846027476    5.03621974270677
C        -3.60343280406533   -1.26124596191184    4.56592129275482
H        -4.12019999301075   -2.19941436449129    4.70728485973415
C        -4.31141565068310   -0.13329016898966    4.17920094146840
H        -5.37868834195348   -0.19485232628422    4.02559068525784
C        -3.64973423879983    1.06581166795147    3.97194732352447
H        -4.19577691465203    1.94115950883062    3.65122114151427
C        -2.28293788921714    1.13831012776587    4.17237311669229
H        -1.74215159834910    2.06218860221634    3.99589660373528
C         0.80001378501585   -1.32656284391999    3.97561701494579
C         0.35711999864815   -1.53117733648244    2.67018771425344
H        -0.32856670744786   -0.82204735692926    2.22614763190823
C         0.80344383587386   -2.62129165978721    1.94991925390542
H         0.46224429569940   -2.77325824769566    0.93655063305312
C         1.69605015407604   -3.51288380640112    2.52392533852888
H         2.04865096919229   -4.36332224482245    1.95915427258156
C         2.14224821264973   -3.30905730473060    3.81858263915599
H         2.84219800901968   -4.00075546099091    4.26462020481297
C         1.70194525587158   -2.21673002610559    4.54530755473681
H         2.05965499700090   -2.05760352170034    5.55294035537976
C         0.55362151984150   -0.19519691674632    6.56848679356471
C         1.83585532854083    0.14536706386626    6.99609536884452
H         2.51558139014627    0.60223727197622    6.27973361625761
C         2.22924833556639   -0.09837030407556    8.29682877237606
H         3.22558957795232    0.16302716408055    8.62220957477548
C         1.33719142703733   -0.68013048486044    9.18431828782055
H         1.63845899867283   -0.87411317496267   10.20309032359312
C         0.05770300730029   -1.00571825586330    8.76816295188309
H        -0.63859780871542   -1.45008695221195    9.46420644467344
C        -0.33940552863599   -0.76557753588328    7.46365146506740
H        -1.34365864792336   -1.01039150037697    7.15111672313895

