26
CSD_code = HOFDEN | q = 0 | S = 0 | Stoichiometry = C11H7Cl2FeN5 | MND = 5
Fe       -0.49687672779794    2.45680056003873    1.93495598172733
Cl        1.19590208657132    1.45633719885592    1.62722740906280
N        -0.84287044928852    2.73539769252205    0.03106406960500
C        -0.49682807105917    7.04504029513879    1.93493297368367
H        -0.49683245562889    8.12471542064084    1.93493364034547
N        -1.03334118091574    1.98066058383722   -1.02024734815531
C        -0.71373961174025    6.36153195490662    0.74772071267081
H        -0.88344487647086    6.88248584248836   -0.17959522540623
C        -0.70993012657774    4.96774917202842    0.76667380834612
N        -0.49680816566897    4.30996642354103    1.93492985636663
C        -0.90595519001735    4.05432534409036   -0.31162432095182
C        -1.15619255411075    4.11765543967270   -1.68920105013101
H        -1.26772648264385    4.99077459385822   -2.29885479388516
C        -1.22441758857572    2.78046491957217   -2.06939963071469
H        -1.40072382465014    2.36715752902749   -3.04236937918751
N        -0.15067373123987    2.73539666745536    3.83879859162678
N         0.03979937427457    1.98066918841779    4.89011205101626
C        -0.27991474573286    6.36153225996025    3.12214474417453
H        -0.11021671873461    6.88248718185592    4.04946103180226
C        -0.28370339320142    4.96774758619148    3.10318929446652
C        -0.08765000701777    4.05432597229135    4.18148438977114
C         0.16260623335053    4.11766554314466    5.55905475209113
H         0.27412161389319    4.99078778371367    6.16870545435298
C         0.23087687201339    2.78048073439618    5.93925452452362
H         0.40721284242586    2.36718010455618    6.91222032986012
Cl       -2.18977312145640    1.45646400779807    2.24262813293850

