54
CSD_code = HOFKIZ | q = 0 | S = 0 | Stoichiometry = C23H21N2O7V | MND = 6
V         8.73493828969791   12.09042427656973    2.89359898474357
N         7.36631455180396   10.62512806652490    2.81357077418895
N         6.84703271101145   10.40413112140738    1.61250022935925
O         8.47511129241158   12.03152608181848    4.54423146404224
O         8.04211376436031   12.24293243521843    1.13186202325074
O         9.47399638062099   12.44348234520469    6.96066476701844
O         9.39487273377126   13.68600230569890    2.65947439931307
O         6.76260774994422   13.55807713042435    3.06832788038908
O         8.44524093331889   17.04516212755031    1.87006272264024
O         9.86103477780211   11.10296238200388    2.60539763448737
C         7.58653952626196    9.94527517513023    5.10791113327143
C         8.29745442758832   11.11840821873486    5.44591147268665
C         8.79256082011131   11.28478072543723    6.76538523500650
C         8.56300942416210   10.29917233380063    7.70662424203737
H         8.93297023908112   10.40602686797732    8.71402768886943
C         7.84489821293103    9.15116875046437    7.36704570380705
H         7.67704165780640    8.39920488695580    8.12249366188979
C         7.36039202603452    8.97218627702783    6.09564391601353
H         6.81226497293730    8.07958758484730    5.83609979396171
C        10.13313331805680   12.64487972021385    8.19478466643511
H        10.80755276122132   11.80252144219989    8.40155404248053
H         9.39733316468577   12.71499503019805    9.00894659996711
C        10.92447781869568   13.93834934894669    8.08355145632076
H        11.63226509282328   13.86406672259455    7.26255952384699
H        11.46315527744599   14.12599552936545    9.00811191144092
H        10.25166645013162   14.76811126136212    7.88528261388914
C         7.09420015008605    9.80367694781598    3.77367983263289
H         6.45227931047147    8.95212030363068    3.54385835297694
C         7.28307420853897   11.29549370434123    0.74981182139250
C         6.87590005579736   11.18597209870572   -0.65919578178419
C         6.02164239294804   10.16950630292261   -1.07541693745330
H         5.66401317710866    9.46411833974988   -0.34199238228371
C         5.64062459327249   10.06435548740604   -2.40549555241952
C         6.12800815034856   10.99410326844270   -3.31701985438026
H         5.84072329609135   10.92261190434361   -4.35658685171007
C         6.98050692802299   12.00812827410410   -2.91041488738325
H         7.35197759404618   12.71887292702338   -3.63418218824349
C         7.35775102378107   12.10939874148086   -1.58591835911406
H         8.02707974968649   12.88806837955384   -1.25010644860986
C         4.71491918872471    8.96741293240941   -2.83697600330162
H         4.62775327240928    8.93192123525351   -3.91985120764153
H         3.72306128677842    9.12653346859221   -2.41528157469680
H         5.07601125847884    8.00456653391818   -2.48116348838522
C         8.68510423000028   14.75419131371452    2.46686013642233
C         7.24069169128601   14.63951384898985    2.71147890265819
C         6.49552377261228   15.85494441014850    2.50080558535969
H         5.43042775920131   15.85613388720708    2.66443032628728
C         7.13757143080443   16.97172230811978    2.09555039023231
H         6.64193241920322   17.91527430671736    1.91389641339312
C         9.21941537632725   15.94955520648120    2.04839590966680
C        10.67180559782651   16.14875299722627    1.76791745228127
H        11.17003561904729   15.18311615133523    1.81359754390796
H        11.11517107663405   16.81911786188865    2.50405044828372
H        10.80981701575106   16.59095871079560    0.78274386055617

