45
CSD_code = HOFKOE | q = 0 | S = 0 | Stoichiometry = C18H18ClCuN4O3 | MND = 5
Cu        2.66976971851199    1.83003942788202    2.19923771324070
Cl        1.35146082172205    0.35650361639796    3.65301541384943
N         1.37188993745024    3.50690463776954    1.89149669545517
N         4.40810663259436    2.26405761248502    3.37562047601052
O        -0.03558340300841    3.00638336654043    3.63416193972319
O         4.06155225639386    0.57949109688603    4.89624301046699
O         1.35324555947985   -0.90719462158761    0.94224198343316
N         2.98944222801192    0.62649238235921    0.45387488420419
N         3.88444978178470    3.18865392197179    0.84658326477719
C         5.19229467016291    3.23219873220093    2.89536423093723
C         2.37746260735771   -1.03044094544850   -1.15337046754408
H         1.74856407178682   -1.87298124093601   -1.38663686876626
C         2.24287125088107   -0.41983124776803    0.10691721472690
C         6.07309661596687    1.75971013241040    5.01190420513921
H         6.36053746996981    1.14311764759105    5.84675655747710
C        -0.33550411008389    5.04641508839918    2.53697023207935
H        -1.15302533905199    5.26006511065218    3.20463612295018
C         3.88863507161721    1.11026335747795   -0.40664689921997
C         2.90247900688650    3.90575799338571    0.06282140782748
H         2.50724829787374    3.21615079582677   -0.68987515576419
H         3.33681871216665    4.77295932536772   -0.46171257575957
C         0.35220234556227    3.82812724810795    2.68483882207178
C         4.82137352576522    1.53506858137996    4.41038906437220
C         1.75447177343474    4.35276444900491    0.93203830745248
C         0.05821994346017    5.91347196518281    1.54784111686758
H        -0.45115452593389    6.85516487172019    1.40895652602906
C         4.07904669632848    0.56276240994945   -1.65983264345933
H         4.81473026175221    0.97668810654952   -2.33104804625388
C         4.70426140767434    2.28527045957304    0.06900560460184
H         5.49536497030068    1.90633337139283    0.72394142944548
H         5.18023060652839    2.78560399047689   -0.79078880371783
C         1.12698770001966    5.56527774601285    0.72517194635600
H         1.45927277771666    6.22562289422610   -0.06007743541379
C         6.87787704904207    2.75505097772009    4.51525137394067
H         7.84391038238475    2.95079732449899    4.95568623950200
C         4.64106578629122    4.03397415998610    1.74369644759897
H         3.95602001938063    4.78324871838298    2.15330759276499
H         5.45990367024513    4.56363900182374    1.22894513569118
C         6.43367879871243    3.51016344900568    3.43235560034844
H         7.04283879174859    4.29909919967681    3.02054409906901
C         3.30437810653586   -0.53239639055940   -2.03533321563510
H         3.43104379880455   -0.98024736849572   -3.00948550754204
H         0.47607656357292    2.15224558384193    3.62808493540582
H         1.36294480685537   -0.43803424294715    1.82039426377579
H         3.18194288534265    0.52188730362468    4.43321376148481

