57
CSD_code = HOFKOF | q = 0 | S = 0 | Stoichiometry = C24H23N2O7V | MND = 6
V         8.14074840116714    8.53117670648169    3.43489274865877
N         8.45221305776206   10.33413718147542    4.24845285818857
N         7.85781383348709   10.54043887630020    5.41818896583335
O         8.69717270044742    9.23439732063478    2.02546905967593
O         6.95147371686414    8.54913158656687    4.91745039013045
O         9.86441114300337    8.90362864052430   -0.32599093344000
O         6.01467653553023    9.56114386331336    2.59826482806305
O         7.20449591886330    7.19017076295805    2.86557709555949
O         3.80314174336631    6.16532611267745    2.46731579781129
O         9.36505868848420    7.94892151531585    4.13581807178014
C         9.97700458891661   11.11351992854486    2.56194895385573
C         9.62456258149578   10.06756691297388    1.67939498864319
C        10.28034877345144    9.95580178892769    0.42515032340791
C        11.25169509600657   10.87658314504045    0.08179486539392
H        11.76374884705097   10.80674508260926   -0.86483124298864
C        11.58265866542649   11.91441890177837    0.95541531635415
H        12.34250374460378   12.62132684154419    0.65994947851609
C        10.95923272520463   12.03927574206724    2.17120954164309
H        11.22230582995092   12.84000330094015    2.84518470119585
C         9.29224762071500   11.21414077743638    3.81148543923293
H         9.48278890810058   12.08524669413412    4.43984425104642
C         7.08853612918245    9.52155660019661    5.72850646051165
C         6.38144637967804    9.51978938920934    7.01754191830916
C         5.60327134317145    8.41917514826875    7.36869635400038
H         5.54087481895182    7.58331821915614    6.68704886151643
C         4.93639455779107    8.41148736786822    8.57926786357623
H         4.33355395786819    7.55970517270683    8.85877645103341
C         5.04113434549327    9.49216312212137    9.43751544210060
H         4.51791121055218    9.47960676145822   10.38326225325942
C         5.81674477977344   10.59901125124335    9.10171153041831
C         6.48417957411632   10.60277252215677    7.88782469595591
H         7.09613437797684   11.44066049821203    7.59328210753773
C         5.91274752018397   11.76356456477880   10.04014053396895
H         4.96213664001748   12.29533662901167   10.07695920830069
H         6.68326742112831   12.45788560857511    9.71703933691297
H         6.14336785323795   11.42478721063070   11.04849055496673
C        10.53574712329175    8.62582644680669   -1.53831665596505
H        10.39588583263034    9.45561620977752   -2.24608360748209
H        11.61119286102462    8.50037311865072   -1.35107232653690
C         5.92195805395278    7.22321510209990    2.67424004569201
C         5.31449316164731    8.54853501059224    2.50233100308195
C         3.89520472283582    8.52539474370326    2.24916654107021
H         3.37250924793424    9.45327542888875    2.08420663917604
C         3.23430295840742    7.34764178789680    2.24766545195274
H         2.17050160540200    7.25869985743532    2.07637755982169
C         5.13559908686546    6.09676542381078    2.68231207146556
C         5.67822887957052    4.73427079373436    2.98651557690795
H         6.49376082167239    4.51685093919688    2.29227953490802
H         4.88361131457591    3.99910202374520    2.84911148573975
C         9.94613819324476    7.34346350212592   -2.10366660293247
H        10.44753916403985    7.08064356747397   -3.03091828851136
H         8.88483425437449    7.47639020875081   -2.29458442507526
H        10.06924615031343    6.53694893930036   -1.38614037391529
C         6.22474541065953    4.68187726902397    4.41707859859250
H         7.00156995663233    5.43717197227120    4.54659307778708
H         6.65287700142216    3.70283397571888    4.61525589788755
H         5.42915017047625    4.86618193115994    5.13619972541575

