117
CSD_code = HOFPEZ | q = 0 | S = 0 | Stoichiometry = C57H41BF10N4P3Rh | MND = 5
Rh        5.89364059448524   14.81801013010020   13.72053613186906
P         7.15201963509250   16.28254003441285   15.02013875840375
P         7.25672528291536   15.43695110818611   11.96105870258978
P         7.51893188056540   13.12487800517111   14.11392479970113
N         4.43990063757251   13.55243673549205   12.99394934167750
N         3.46305469235443   14.21281131859711   12.32911728496346
N         3.37603285707325   15.42497393929301   12.47748079471535
N         4.23659479096773   16.04191152466942   13.31345530043400
B         9.56473290881299   15.18124301445608   13.84437805646858
F         4.49157429556748   12.27716077080631   15.37189065151302
F         3.86278920092177    9.63526814068970   15.63127043056404
F         3.26961036369632    8.15628372689888   13.40789377432918
F         3.24607976696710    9.35623822706426   10.95671837357169
F         3.83183002916325   11.97706265448586   10.70590881125254
F         3.04462771419668   17.85254939785703   11.44211333276092
F         2.30491870794583   20.30490890068705   12.19266744565890
F         2.55891096515268   21.12062377809938   14.78925095972781
F         3.53236501706178   19.35970015407657   16.65474439313565
F         4.34398113410263   16.89110941938118   15.88829219045421
C         6.99272577321769   15.49229995132728   16.65873828898320
C         5.86462244760245   14.69959348285140   16.85606546394610
H         5.15883935422125   14.55738985541981   16.03400032920093
C         5.62013644520509   14.10365215561330   18.07866871376330
H         4.74154206072689   13.49222108425612   18.21344119185778
C         6.51298008664106   14.28905017145206   19.12166083818493
H         6.32738412393983   13.83076614345600   20.08140654788605
C         7.65027621052422   15.05843164647212   18.93102154441823
H         8.35253470152890   15.19430784940360   19.74067882971406
C         7.89199614310963   15.66036623954068   17.70812624241005
H         8.78489664108069   16.25516779319261   17.57518298033479
C         6.76727241342970   18.03810740166573   15.38922715491945
C         6.56344920525745   18.90979995968819   14.32437947617197
H         6.53929565987476   18.52141193323735   13.31961415645221
C         6.37111941266694   20.26094985821983   14.54314713084660
H         6.21474442353940   20.92033321688860   13.70198381553103
C         6.37208975145535   20.75930488207344   15.83551984388535
H         6.21591859436258   21.81249580402953   16.01196144310818
C         6.55662541365485   19.89513568457782   16.90154221456311
H         6.53920401681256   20.27374967194747   17.91234205366217
C         6.75079088260700   18.54197794018167   16.68494872160014
H         6.86951768702272   17.88101410246830   17.52980805572449
C         6.88631222638911   14.73111652509528   10.30372238347050
C         5.58535011746613   14.50761698790707    9.86424876800407
H         4.74194082721418   14.66675719989723   10.51603520258390
C         5.34557619246129   14.04562884763400    8.58307961323476
H         4.32974117342350   13.86250501943761    8.26939529316217
C         6.40113301369654   13.81269251542090    7.71861032276993
H         6.21526339609206   13.44824220122010    6.71951841711703
C         7.69763599305870   14.04998262355535    8.14253588427663
H         8.52774052970916   13.87712227660844    7.47349026258302
C         7.94213611080014   14.50729568514372    9.42465720006863
H         8.96027847302023   14.68514886248596    9.73308029976254
C         7.15387076380426   17.18714531360293   11.43967552251513
C         5.95606890561920   17.62108484580195   10.87610072824770
H         5.12735566553360   16.93527715317871   10.79411549767894
C         5.82232437523165   18.91699914965318   10.41474125714105
H         4.88471850843772   19.23789004835835    9.98727031601409
C         6.89151389471846   19.79434843613621   10.49805161545579
H         6.79004711844576   20.80779932812170   10.14021078425826
C         8.09451031104116   19.36264385666184   11.03125291233564
H         8.93598244815787   20.03737183047747   11.08522231277285
C         8.23105692295799   18.06693977021204   11.49903818132244
H         9.17678469442114   17.75556447567320   11.91366881630166
C         7.29279572590031   11.72575463037961   15.28265249882286
C         7.52405170835023   11.89443599007398   16.64347856093964
H         7.81489942174417   12.85787780860823   17.02944383246451
C         7.39455013657341   10.83062863249051   17.51712586439551
H         7.57257435426410   10.98421142016757   18.57120783560630
C         7.04516653481876    9.57740588935584   17.04522335545705
H         6.94444684411716    8.74630390523849   17.72611928252029
C         6.82650810831016    9.39522069256779   15.69044586871437
H         6.56012706833861    8.41961205109122   15.31126254741845
C         6.93834275718134   10.46099668877394   14.81655112353156
H         6.75837053319264   10.30133301727723   13.76186552750976
C         7.96296227873913   12.11082570319588   12.64752117233100
C         9.11223556339766   11.32160464444051   12.65032858652960
H         9.76646984686566   11.31323520753350   13.50943723581877
C         9.41866455343891   10.52843177252871   11.56122893484736
H        10.31734331562164    9.92937816426804   11.57392445706178
C         8.57597487366046   10.49002082968383   10.46052932283180
H         8.81900679832793    9.86598744382257    9.61394876382156
C         7.41657597716251   11.24362643975239   10.46101951214510
H         6.74041121843879   11.21363729677819    9.61979489938632
C         7.11679057853582   12.04528480668109   11.54897485233460
H         6.21406232031570   12.63175832730550   11.54125720810358
C         8.91670510820898   16.46968540867225   14.63037107616736
H         8.99208395717194   17.39663678333890   14.05531325627757
H         9.41914152642704   16.65047392342919   15.58502647228948
C         9.00152842946056   15.09663391880951   12.28233975627871
H         9.17288670717215   14.08036979661215   11.91894849618589
H         9.56627986482451   15.76829784782660   11.63147639632840
C         9.10505038733143   13.82288919575823   14.66138562178150
H         8.99170411526490   14.05730179131701   15.72281533282177
H         9.84523694627042   13.02205066743398   14.60216673018629
C        11.17797350288781   15.25289727298646   13.74746257335946
C        11.93753041986547   16.32621995302757   14.20699265887750
H        11.44555756881029   17.17044054271079   14.66958361930701
C        13.31683397229151   16.35536165797993   14.08892290384014
H        13.87166944294046   17.20622488341711   14.46072601202648
C        13.98695658597483   15.30086382871944   13.49634930455121
H        15.06354714072608   15.31828623461492   13.40352056428717
C        13.25906370938908   14.22413402727255   13.01980414027851
H        13.76853890641700   13.39466529931728   12.54793436135328
C        11.88252165466462   14.20907030537292   13.14515936115089
H        11.33690258670698   13.35853196777741   12.75662353749674
C         4.21738614294287   12.19201449073085   13.03949221578378
C         4.21451543632385   11.54087440644721   14.28170796509237
C         3.89046224426098   10.20329095063429   14.42072089848208
C         3.56754063615442    9.45523788612530   13.29251148251349
C         3.55149100940050   10.07188912885319   12.04428343609601
C         3.85546026811666   11.41877199129982   11.92242489186864
C         3.84225615256417   17.31964783635875   13.62841295353913
C         3.23631807740087   18.20839823477898   12.71883785815371
C         2.82375037175066   19.47418926089880   13.10498501943064
C         2.94917440987382   19.89351004772185   14.42526779973054
C         3.46904181570277   19.00937032189213   15.36476808626145
C         3.89703680058957   17.75903801517438   14.96174781356471

