102
CSD_code = HOFTII | q = 0 | S = 0 | Stoichiometry = C33H61N4P3Ru | MND = 5
Ru       -0.13683682277827   12.39852171940260   10.76212266968537
P         1.39464559688238   14.10095939056024   10.38823142171203
P        -0.97656520107590   12.28471191495420    8.58342437309506
P         1.33625228394157   10.63908039758816   10.34477794108755
N        -1.99632321787203   13.24296088772650   12.75139777896660
N        -1.12357188563760   12.64034048715870   13.41715378807334
N        -1.89056145179039   13.21196248892323   11.42449449320164
N        -0.15451751291056   12.02318743265522   12.74697862183119
C         0.12450688379969    9.93976726488615   13.96768707141311
C         1.76689324230036   11.70953602704633   14.24338604068639
C         0.60380095181057   11.21811327930320   13.63391580595893
C        -4.21901261728160   12.91987969015973   10.77268592731000
C        -3.11683872260935   15.04297560033706   10.33994265446317
C        -1.17291372148224    9.43028329207590   13.38849425856196
H        -1.35452573166104    9.96801846304590   12.44302553239779
C         2.45845065299391   10.90293965103086   15.13396113554301
H         3.35287110015036   11.27266641340098   15.61073604410844
C         1.30226169720726   15.47990951836573   11.62943559404746
H         1.05692119647353   16.41432117195674   11.12802648189353
H         2.25491484745073   15.59240254536205   12.14312830198611
H         0.53070304715878   15.25939226031653   12.36441452965349
C        -3.06438615695430   13.72379651426627   10.81987085177802
C         2.62348359661651   10.74539648941619    9.01129955306046
H         2.37080591070919   11.51213621663652    8.28525404223076
H         2.72557383568576    9.78419366863187    8.50842049048036
H         3.57407413979544   11.00437629841731    9.47359114032987
C         2.19693122671362   13.12725921331860   13.97054217712076
H         1.88422827704850   13.35967272028004   12.94361461840347
C        -4.27473716006369   11.60408769697265   11.51398878323971
C        -1.94731905789059   15.95857743529345   10.59734858211008
H        -1.04024915686178   15.34090945212205   10.53624039430300
C        -0.02664808216555   11.65528913934157    7.12336032621116
H         0.78077325561460   12.34897485376564    6.89252175639549
H        -0.69267961064593   11.59651207083466    6.26264708331410
H         0.39729574644180   10.67398776285691    7.31620978601056
C        -4.81746101643886   11.89751003540433   12.91810741419723
H        -4.13681604216151   12.55743910849655   13.45073027487808
H        -4.93357962704547   10.97622693701139   13.48392228309877
H        -5.78870197291975   12.38417031019662   12.84499688038060
C        -5.34969232368742   13.40506070608320   10.13125262020002
H        -6.23566758293775   12.79161244122997   10.07521221139602
C        -2.07641425809451   16.50297232048646   12.02447788375675
H        -3.00881567624445   17.05538790725174   12.12830075192151
H        -1.25051582115239   17.17217776018459   12.25821545974163
H        -2.08428916355183   15.68597718831872   12.74285562223455
C         0.83884818546590    9.16618816831052   14.87100487115433
H         0.47531586151102    8.18663077809124   15.14124072171535
C         0.47321091607142    9.09480517675681    9.81370818987973
H        -0.24876027977361    8.82505966334903   10.58253280729255
H         1.18623102436536    8.27971463825040    9.68612553735352
H        -0.06338918094298    9.26067091672560    8.88169847684477
C        -2.30879834199550    9.76007532667995   14.35987045972746
H        -2.11770866136338    9.29916130444254   15.32746806156133
H        -3.25462004534316    9.38325542738464   13.97605510103431
H        -2.38266638550591   10.83603358771228   14.49835600250230
C         1.44886493039110   14.05882892872622   14.92970691070428
H         0.37439306626876   13.95239926884669   14.79593708716723
H         1.72722391622273   15.09626528724527   14.75361474847072
H         1.69057235004232   13.80517322687309   15.96032940737994
C         2.00461550491974    9.63555513455253   15.44379072556266
H         2.54846594605742    9.02127371911719   16.14699595232314
C        -2.42171747757973   11.14739688735390    8.48206684209212
H        -2.24464901304361   10.25357449046297    9.07866198976857
H        -2.63224179311339   10.86836407891202    7.44942139134852
H        -3.27613335256425   11.68074843324778    8.89505430818753
C        -1.82023906453815   17.11391479061043    9.60700482547186
H        -1.86392997189690   16.76086537956680    8.57815924311995
H        -0.87042822572142   17.62547551644679    9.75647399734349
H        -2.61175835039113   17.84491486966001    9.75641756459119
C         3.22023620262665   13.79654713740516   10.41617032377473
H         3.47229188515442   13.10384875980796   11.21527037841555
H         3.75519296390473   14.73545192365184   10.55922346617496
H         3.51790074477565   13.36175629174156    9.46477107603856
C        -4.27125897051487   15.49559009631526    9.71840394242249
H        -4.32021799506790   16.50640192654220    9.34467273703802
C        -5.37275556205407   14.67235491281699    9.58331582086150
H        -6.26181381837661   15.03312256443876    9.08650632071612
C        -1.15634135095371    7.92948151936299   13.09198016953011
H        -0.23796759631117    7.63466886657535   12.58684720999233
H        -2.00134412343161    7.66793771482943   12.45648770551869
H        -1.24276964824941    7.35086597686609   14.00892045978456
C         3.70358685794629   13.35070691655413   14.08428490712041
H         4.02551215231111   13.32632238968240   15.12285344026216
H         3.96552690909997   14.32762533173801   13.68133868933358
H         4.25794735324798   12.59205612606842   13.53386006871198
C         1.41181162288295   15.12487765956159    8.84796234931377
H         1.60155415678495   14.47846283530435    7.99184255318039
H         2.19699088531026   15.87863330285975    8.91145846781914
H         0.44848085063464   15.61083171399519    8.71671722668433
C        -5.13905734280299   10.53280018791161   10.84757833562862
H        -6.19629505687769   10.77077447832504   10.94006803400855
H        -4.97253822984990    9.57611487433320   11.33985111506267
H        -4.90188417803988   10.41815554806718    9.79224283119038
C        -1.72364921705328   13.70355115024403    7.67339383815714
H        -2.39601462945624   14.25665945018132    8.32266042970380
H        -2.28298641965148   13.32682738757072    6.81674396700578
H        -0.93575482825131   14.36670368088574    7.32283976399592
C         2.44850361170444    9.84748354094365   11.58340014973773
H         3.06093808941831   10.60402602199504   12.07019781837107
H         3.09199658147874    9.12956424729069   11.07392680472798
H         1.86750853409024    9.33709426970621   12.34618475757215
H        -3.25287988685653   11.21112205401096   11.60492816706752

