45
CSD_code = HOFXUY | q = 1 | S = 0 | Stoichiometry = C20H17CuN5O2(1+) | MND = 5
Cu        6.05982666857847    6.47459341670781    3.56610079871602
O         3.41829461444415    9.12552861987227    2.98702182813979
O         5.32111009915978    8.03480930006565    3.14252325085764
N         4.41226137373070    6.03494092332113    4.33530823031633
N         6.71406002004627    5.01457549395303    4.46742867959370
N         6.30248551169696    3.38834039862264    5.89675402393814
N         7.65744013831853    7.10138707032307    2.68084571407801
N         5.73885359327300    5.74996497466998    1.41678521280524
C         4.06401905293335    8.21993507448081    3.43495041924939
C         3.54219971147401    7.17422404983776    4.43125650521168
H         3.53772614452641    7.64055931552265    5.42803407480701
H         2.51802824489404    6.88519627251530    4.17282318915285
C         4.59664334095658    5.27626727305596    5.54997726961563
H         3.74066486969820    4.60270432994209    5.68857639846251
H         4.67198480230579    5.91232218177282    6.45198886666411
C         5.85820462871389    4.52965110095099    5.35015053494472
C         7.77426961438292    4.13957676182665    4.39843648146532
C         7.52369042497495    3.10050439445121    5.32096697169848
C         8.41312384954484    2.05397629053616    5.50813263918412
H         8.21340242651384    1.26699527874868    6.21721644445156
C         9.55998538778011    2.06475677620203    4.74054983000845
H        10.27825874114639    1.26820582029686    4.85139210866204
C         9.81012412420199    3.08160897318621    3.81616847224847
H        10.71598604342126    3.04242632548065    3.23197782397382
C         8.93148044778212    4.12888351762050    3.62870571442452
H         9.12496930961839    4.90309104101479    2.90513479626662
C         8.66946731675837    7.62601849841963    3.36285788811174
H         8.63864661967241    7.51649856619705    4.43775551863826
C         9.71706528496789    8.27787065399956    2.73940665919775
H        10.51854944422887    8.69794465265757    3.32451846429681
C         9.70180752100576    8.37824209661843    1.35471123375585
H        10.50207447241869    8.87875843621150    0.83157372142936
C         8.64380418400165    7.82971567540038    0.65332758993755
H         8.61877555341993    7.88197887368551   -0.42261094809672
C         7.60836491924472    7.20189271250609    1.34545215701273
C         6.43475898075396    6.62001888275484    0.67751433435577
C         6.03827501763924    6.96849355871394   -0.61060461102317
H         6.58389892460790    7.69799860106430   -1.18603987930471
C         4.89078319736207    6.38867414087110   -1.13081032243979
H         4.55229444564317    6.65126216076477   -2.12136073558310
C         4.18255161005354    5.48134427431302   -0.35966891499135
H         3.28563867374467    5.01314484426161   -0.73113816282319
C         4.64871422543481    5.19970494749023    0.91734335375556
H         4.13281251450895    4.51180956597333    1.57262322294748
H         5.83112391041365    2.83190388311716    6.59294315188788

