95
CSD_code = HOGBUA | q = 1 | S = 0 | Stoichiometry = C43H46NO2P2Pd(1+) | MND = 4
Pd       14.32174810947665    3.24666596838470    1.34817233803225
P        14.82042133664628    5.53716033642855    1.13960679713102
P        14.22936502441791    3.24878802503829   -0.89082285817671
C        13.83155540859164    1.30805687073199    1.47992736016801
C        13.10734751271323    0.48967828100384    0.59759337857860
C        12.82420966150287   -0.80438319436082    0.93897117475944
C        13.26485414687420   -1.34865810599505    2.16179838786129
C        12.98971364885512   -2.68946732884459    2.50379590769832
C        13.43214325691520   -3.21708992523413    3.68291949168123
C        14.17494423740278   -2.42308954127045    4.56886149886711
C        14.45673924003511   -1.11941894713118    4.26935948080035
C        14.00714155458194   -0.53682557261099    3.06366327466161
C        14.25773848375968    0.81080820087697    2.69340597369358
C        15.01799852970738    1.78643874245427    3.56656082634512
N        14.35980145001698    3.10914479231459    3.43813041406360
C        12.99016426032198    3.05908313672663    3.95970951730326
C        15.09530755909652    4.13565358621288    4.17835248701919
C        16.47035877152906    1.84321052197765    3.06798362069353
C        16.37888289807993    6.02739753823975    0.24745266246856
C        16.01227049681085    7.35551039366258   -0.37348482378873
C        14.75252577934034    7.32336362099101   -0.81718782240926
C        14.12401458977711    5.98281143510344   -0.52676606453210
C        14.86712952861419    4.91652755364930   -1.35767926671286
C        16.33425036806570    4.97069337490515   -0.88921924034681
C        17.28027862877500    5.33438088090659   -2.02390251529807
O        16.91905449827486    5.59417187149042   -3.14111797913926
O        18.53844327996196    5.32795764474491   -1.60670895253725
C        19.55366017212420    5.62503694800433   -2.57691882058994
C        19.92250803683735    4.38893289269370   -3.38157887237890
C        17.02429027268332    8.43613597100349   -0.54282076336351
C        14.00728001461514    8.35353356828831   -1.58640555051042
C        14.32178159087173    6.92873591719726    2.18226812547320
C        15.19293951902578    7.89010818702502    2.67777385290439
C        14.70173841540756    8.90399462784187    3.48159367011682
C        13.35396115820714    8.95327073158819    3.79968275794945
C        12.48591734074291    7.98279692932276    3.32197926940709
C        12.97028901626674    6.96704613387921    2.52084856300605
C        12.48796371188807    3.27965992806170   -1.39997187479537
C        12.03710426119502    3.08969811775094   -2.70052749388848
C        10.68184079857551    3.17294184603662   -2.97193180672674
C         9.77980852881106    3.44398346481567   -1.95594866207311
C        10.22536005802974    3.62243047685077   -0.65439638631058
C        11.57542645570406    3.53604732248557   -0.37438734133087
C        15.22003210536128    2.14324603789937   -1.92708352546723
C        15.42135322508520    2.37774832861478   -3.28517032594055
C        16.24031849227059    1.53144376475635   -4.00994205195223
C        16.86687995442835    0.46191874122651   -3.38894314415687
C        16.68537462566680    0.23998184586138   -2.03338110835356
C        15.86761733801774    1.08105239396348   -1.30107601196002
H        12.77572356403183    0.87605807583915   -0.36140074258174
H        12.26285902428253   -1.43415688684342    0.26424986472781
H        12.42238362613813   -3.29100415375162    1.80895387321739
H        13.21877139309807   -4.24329820050204    3.93939852409186
H        14.52782287276876   -2.85113636893822    5.49504714786273
H        15.04046180783923   -0.53720406350168    4.96582350353265
H        15.00899813323883    1.48761722130295    4.62500313672327
H        12.42541560522240    2.25400901200905    3.48472583778632
H        12.49136064220685    4.01195124249042    3.76315869802477
H        12.99226129199240    2.88635253247467    5.04345646993229
H        16.05500404907055    4.34748881636802    3.70235210663873
H        15.27198692207486    3.81707439247095    5.21295764074816
H        14.51600258394003    5.06078745052011    4.19977832512603
H        17.12619755380802    2.35370500787002    3.76955555450630
H        16.51347542588023    2.35133745642646    2.08473905568628
H        16.83863713717955    0.82671339725633    2.94248231694004
H        17.31976479276691    6.00570520426516    0.79709898865760
H        13.03919679945146    5.94551154178858   -0.64967586087795
H        14.78775194385387    5.11353186917686   -2.43244528473508
H        16.66589220246249    3.99581979089668   -0.49069112440654
H        19.18714326150068    6.41522554798080   -3.23915798424975
H        20.40213322724529    5.98730439413490   -1.99425805187629
H        20.72867374280218    4.63245300187692   -4.06673181145616
H        19.06473912857367    4.04616848221170   -3.95561807632664
H        20.24841683135655    3.58967535660952   -2.72036914480014
H        17.83076003971743    8.32964073386588    0.17912861212750
H        16.56752908072914    9.41530386001306   -0.41668852535938
H        17.45823059259112    8.39569929784679   -1.54268781656166
H        13.02749541015665    8.52451263788667   -1.14135263320777
H        13.85540150548823    8.01588571438128   -2.61185290310737
H        14.55390426980368    9.29125287204210   -1.61256592780308
H        16.24343229715427    7.84724054041097    2.43215974354933
H        15.37282027706304    9.65892505889447    3.86201699220360
H        12.97809732154008    9.74773393163204    4.42560607444699
H        11.43736583414515    8.02106210571250    3.57618842526180
H        12.30819923781177    6.19478093987401    2.13964123138871
H        12.73548150401832    2.86275506609317   -3.49173650693571
H        10.32861558634663    3.02246592159655   -3.98057716274101
H         8.72527862586444    3.50664384872993   -2.17567912189898
H         9.51749994618799    3.81976773870674    0.13657633153877
H        11.94250603989126    3.64582742321959    0.65728274453549
H        14.96170441183773    3.22411617997517   -3.77361747012982
H        16.39550220715271    1.71132591862436   -5.06291123773039
H        17.50459252326312   -0.19342191303166   -3.96205786691366
H        17.18348869632542   -0.58495263749851   -1.54719549980889
H        15.72257367814835    0.92443030511513   -0.23634801367638

