87
CSD_code = HOGGES | q = 0 | S = 0 | Stoichiometry = C42H38N2P2PtS2 | MND = 4
C         3.95124278670958    1.24011288503363    8.81530467804570
C         2.52533724055573   -1.92823069383306    8.55677842442315
C         1.51012440061870   -1.02221042271294    8.25681582133457
H         1.73206727420960   -0.14450303835751    7.66664924918821
C         0.23057150694131   -1.23707410218965    8.73334177843794
H        -0.55323306463455   -0.53392102474948    8.49498879417976
C        -0.04335395989732   -2.34397764475700    9.52095272149320
H        -1.04423267809394   -2.50995932210771    9.89083310801345
C         0.97025289739410   -3.22985490156550    9.84765853713543
H         0.76234809759772   -4.08324141370955   10.47650270123744
C         2.25336117870257   -3.02158932722318    9.37511345116091
H         3.04581593424626   -3.70323584990682    9.65111582533849
C         4.07630109973009   -0.98780485843546    6.28719038006326
C         5.14099504699764   -0.20426617554488    5.84502498860871
H         5.94789477507195    0.04400407704087    6.54271180190260
C         5.17583948285234    0.25315193855285    4.54190210563616
H         6.00156060862704    0.86171589843421    4.20408954696737
C         4.14547166227581   -0.06831012556721    3.67195411852398
H         4.16964794903995    0.28585727152183    2.65214289509561
C         3.07770068743309   -0.83427824652074    4.11046820436250
H         2.27121956536171   -1.07494630440106    3.43344642541826
C         3.03768994168870   -1.29522352325537    5.41539315520364
H         2.19481033158212   -1.88009539578136    5.75861352620735
C         4.98231171780462   -3.24917892724989    7.72226976110976
H         5.95365713111125   -3.02979720577861    7.26056401345824
H         5.19743933172932   -3.70676324148165    8.69238835663571
C         4.17496000986718   -4.17912911073633    6.83743748405898
H         3.75275943304131   -3.66285598327877    5.97561926578494
H         3.36501062616519   -4.66346933958676    7.38184442844353
C         6.47115856851954   -4.71896593857014    5.30833902524311
C         7.72244317116145   -5.32264221974655    5.26102423211525
H         7.87708045614142   -6.25455894432927    5.78288657736499
C         8.74973456606693   -4.72715622805696    4.55524139371330
H         9.71996981242702   -5.19980627055088    4.52415818844231
C         8.54080749419660   -3.52280430375981    3.90242984974727
H         9.34755768033257   -3.05078327080370    3.36230844121330
C         7.29183677185679   -2.92849050756522    3.94441105113444
H         7.11362571946991   -1.99315832460014    3.43404627799624
C         6.25222574882785   -3.52559853764217    4.63478029871160
H         5.28264654481929   -3.05200436219482    4.63466636637831
N         3.06952782080326    1.97111833885680    8.70474480532220
P         4.21490056877884   -1.59082184513053    7.99400227686515
S         5.20431679886067   -5.55963717401829    6.22447574029978
Pt        5.48987697134626   -0.00133591298958    9.00529971360978
C         7.02867026081727   -1.24266616369394    9.19420490551556
C         8.45565819608617    1.92355614893513    9.45637194632877
C         9.46905773645466    1.01677738921778    9.76014134634456
H         9.24459439753250    0.14027193947023   10.35112850064341
C        10.74997661096494    1.22920623741781    9.28626245630639
H        11.53230420606240    0.52543063111678    9.52760637439528
C        11.02709850964300    2.33449171780596    8.49750719132657
H        12.02908788902361    2.49875005528243    8.12987328702479
C        10.01536109004689    3.22111144293136    8.16704584520560
H        10.22586056183076    4.07326685394763    7.53740034004152
C         8.73087473704735    3.01526489509633    8.63693425355422
H         7.93994759744616    3.69748539326197    8.35796940837905
C         6.90018603418398    0.98817483405519   11.72426666110491
C         5.83491218311972    0.20508219614249   12.16579810520610
H         5.02918510495743   -0.04424682214702   11.46713835835588
C         5.79808323391574   -0.25069831574693   13.46945140186248
H         4.97188576436031   -0.85891110152101   13.80673663892131
C         6.82712523915627    0.07183987124667   14.34055761889475
H         6.80145377420812   -0.28111547490954   15.36075207971904
C         7.89550277971203    0.83735097022860   13.90270556316290
H         8.70098563556823    1.07882755920605   14.58062520859175
C         7.93743250069837    1.29676296228310   12.59731114237338
H         8.78080431337147    1.88129029724905   12.25472298382472
C         5.99786361234181    3.24800908932731   10.28352681106403
H         5.02520011105537    3.03000593447326   10.74309800754352
H         5.78548440630691    3.70411480083595    9.31209540746603
C         6.80348431235758    4.17890453816479   11.16889242933405
H         7.22262806662479    3.66392723177631   12.03298866436459
H         7.61547747427629    4.66141786445613   10.62591870890697
C         4.50173070948446    4.72346961049966   12.68755669573652
C         3.25072199973598    5.32818017212461   12.72832283914008
H         3.09920543029321    6.25961180086166   12.20469799699488
C         2.21959026170302    4.73407333749622   13.42968383430081
H         1.24949265765423    5.20730793350234   13.45541474283850
C         2.42444447905392    3.53012149063325   14.08451780224765
H         1.61468401827156    3.05907340343292   14.62095222418437
C         3.67323238349934    2.93496300616718   14.04935877800455
H         3.84831106476454    2.00007656402381   14.56161030854564
C         4.71660375161687    3.53071510069722   13.36352439573393
H         5.68593751747988    3.05662464970389   13.36895072210783
N         7.91166281178502   -1.97247389433798    9.30240460414767
P         6.76464297820278    1.58866656410304   10.01628944528231
S         5.77357388924533    5.56162689431537   11.77605417911302

