41
CSD_code = HOGGOZ | q = 0 | S = 0 | Stoichiometry = C12H22Cl2N4Pd | MND = 4
Pd        1.01596582037214   13.32229304841369    3.75099563394516
Cl        1.15927836031705   11.32189243534921    4.73525951874435
Cl        2.36068749645653   14.29668337873899    5.24687668378009
N         0.73752094058412   15.22742914138569    2.75301937809984
C         1.89381996146700   15.41621486561592    1.88258754657822
C         2.23503271034320   14.11160615984806    1.18621675511122
N         1.07423199155192   13.60913450040609    0.46305951558892
C         1.35225129555660   12.32942478815956   -0.17285786836348
C         1.39100783226183   11.19400145860973    0.85075162305447
C         0.06369605775960   11.17190211226226    1.59355212220421
N        -0.23875603206544   12.47436391426881    2.19857652045502
C        -1.59354743005270   12.42200841446461    2.73921480233230
C        -1.89566368866113   13.69930561935435    3.50125832418887
N        -1.68641611843042   14.85810209704444    2.64307774599564
C        -1.91574153567678   16.10397058209341    3.36037290162288
C        -0.76319264745038   16.41946357885710    4.31463783041679
C         0.52707923921238   16.46691365759885    3.51020813899695
C        -0.43813655115916   14.90005512443037    1.91682543077079
C        -0.16792951365576   13.56301714853655    1.19947135925523
H         2.74061825270809   15.73422044555229    2.49710862049834
H         1.67628220711387   16.19474398960176    1.13371670754899
H         3.02195655226094   14.28490117289091    0.44668019515177
H         2.63064643387970   13.40210339421264    1.95381311041516
H         2.29817753749991   12.41515666209805   -0.70982279492606
H         0.55840350571521   12.14179026825304   -0.90329918399603
H         1.54933104086138   10.23689753491558    0.35482184146373
H         2.20185491204741   11.33895685257062    1.57209085012906
H        -0.74287128676617   10.90808280031161    0.89019160331255
H         0.09447212619587   10.43374698970232    2.39937018215354
H        -1.66200369775779   11.56721954858939    3.41773028943196
H        -2.31932359881870   12.29428206757219    1.92002646526763
H        -2.94772930440025   13.70860746930003    3.80004100171637
H        -1.27196082671692   13.70579087263107    4.42864182520041
H        -2.86363596443219   16.01927695669583    3.89404261987822
H        -2.01004230464145   16.90278643471601    2.61744402167423
H        -0.92440902837305   17.37894338696219    4.80503971538271
H        -0.67171937069403   15.65376441608668    5.09187932124192
H         0.48654412553252   17.31395443456741    2.80611619961015
H         1.38335556683481   16.59431069149681    4.17787075686662
H        -0.55146956276683   15.68647346690767    1.14479828727587
H        -0.96996550401390   13.40740811892982    0.45119440192553

