35
CSD_code = HOGGUF | q = 0 | S = 0 | Stoichiometry = C10H18Cl2N4Pd | MND = 4
Pd        0.57246763619750    2.91815026783879    0.34015516710874
Cl        0.69515344233375    3.04094455344405    2.56928371089713
Cl       -1.65969179028625    2.79354426780872    0.34198650718434
N         2.71182171935341    3.05724395354154    0.16769070309172
C         3.34494993595502    4.18552584632973    0.85230853206520
C         3.20490009361037    5.34963540471061   -0.16950912185133
N         2.56429379686751    4.79129834214341   -1.36610645007676
C         1.13482733806066    5.12021166997959   -1.45861083022760
C         0.34592206977304    4.11692580195164   -2.31013480241054
N         0.62512426399220    2.78299162911337   -1.80604099281867
C        -0.09101084141957    1.65377081739193   -2.40179777270451
C         0.94186724750403    0.49335456209867   -2.32620013125271
N         2.17001942231492    1.05328003373984   -1.75023926661247
C         2.34082354258819    0.72092055208955   -0.32877408648425
C         3.23336253407149    1.72353136972269    0.41423024398890
C         2.89170633120156    3.38699253239950   -1.25029181409893
C         2.03179258016043    2.45815572329128   -2.06615053943559
H         2.83225025321433    4.38059177206903    1.79749764425022
H         4.40239654005914    3.97031372116690    1.04990797941667
H         4.18948198703984    5.72770108068663   -0.45537890348603
H         2.61875854507803    6.17787935534213    0.22655977682648
H         1.07082545072207    6.11328728947432   -1.91371254822906
H         0.65153720512644    5.16999477527503   -0.45007850573541
H        -0.72311105845935    4.32445947170308   -2.21093258578991
H         0.63931058332771    4.19526301542822   -3.36896164457977
H        -0.35152738527928    1.87152402780142   -3.44497122448580
H        -1.00362626675289    1.45304323777480   -1.83510294120622
H         1.17393697762831    0.12263675771055   -3.32759667139514
H         0.58284805637881   -0.34027219505297   -1.72412289823449
H         2.79975645393233   -0.27171885887592   -0.29262875248599
H         1.36056178200915    0.66881677019649    0.20925407467026
H         3.19460987507994    1.51280608182760    1.48654670755999
H         4.27426968378467    1.64821618911023    0.06172424358548
H         3.95701164277291    3.26937049911780   -1.52957639371736
H         2.25058035205987    2.57990968164970   -3.14502641332661

