79
CSD_code = HOGNEW | q = 0 | S = 0 | Stoichiometry = C38H34MoP2S4 | MND = 6
Mo       -2.75409194076749   16.30686972248808   14.92300501437283
S        -2.47326329584011   18.66296129074944   15.06930496463961
S        -2.54542338883235   16.74604387689179   12.57393843715991
S        -1.06699905478980   16.21288101124535   16.62632278967008
S        -1.88362929322092   14.16115312242943   14.38401240820302
P        -3.98019105847254   16.83262226173694   16.94246102106492
P        -4.68744710050390   15.19066909229231   13.99115910083288
C        -2.28098423596254   19.30837805036803   13.46335355700725
C        -2.28912102746303   18.45110741324482   12.36106708448910
C        -2.10892916609611   18.97444665594853   11.08044505335298
C        -1.92909642880138   20.32853146003082   10.90745358858334
C        -1.92358923516205   21.18275507360416   12.00723826128094
C        -2.09460823412110   20.67761541192983   13.27681451652793
C        -0.22647938453415   14.69982809049596   16.47592723316117
C        -0.60117892719526   13.77653325595977   15.49747555320020
C         0.06704074497836   12.55661534582006   15.40112784500233
C         1.08973837349889   12.26070597400474   16.27446688868620
C         1.46549530405347   13.18115868703261   17.24954071780704
C         0.81634735182666   14.39128902734286   17.34979671687088
C        -5.66127959880182   17.53256098811232   16.73629771731483
C        -3.26649744360899   18.00522467374597   18.13701739718354
C        -3.48253698759787   19.37388694531385   18.00444284642954
C        -2.87957341740245   20.25999112653105   18.87813603161399
C        -2.05499359753558   19.79222106327722   19.88733151291863
C        -1.83470323435999   18.43161045555900   20.02259852573778
C        -2.43338562679893   17.54062257942886   19.15197400426268
C        -4.26566217951166   15.40393480914636   18.03430302808018
C        -5.05020292004674   15.52758292306561   19.17845139714960
C        -5.21951033951755   14.44684761381747   20.02317074151399
C        -4.59929279703026   13.23891754970870   19.74339367426140
C        -3.80673012350021   13.11389582527786   18.61514922267148
C        -3.64205668603576   14.19213105350137   17.76345355385344
C        -5.55541943873214   13.99786225563497   15.07750173880468
C        -4.50360107256788   14.20166755680339   12.47479864565260
C        -4.65015139254058   14.81105368528870   11.23082885727207
C        -4.45043474257812   14.08402805101828   10.07259171919544
C        -4.09932790312579   12.74610371439712   10.14202514900132
C        -3.94867807261095   12.13611826211042   11.37584769969555
C        -4.14647052584698   12.85794002923004   12.53861899443605
C        -6.01873699388385   16.31793953472181   13.47039793454273
C        -5.78669988493872   17.68772417316254   13.43642645317375
C        -6.77009603198895   18.55335944055563   12.99028116394114
C        -7.99436348203748   18.05540372553479   12.57784411144150
C        -8.22991832724692   16.68950162648153   12.60254786254910
C        -7.24658561557787   15.82205992207407   13.03919226671830
H        -2.11460108297816   18.29653730402343   10.24029381594388
H        -1.79078348258621   20.72854625384766    9.91402421766841
H        -1.78146046609675   22.24371526235070   11.86543885830576
H        -2.08787520167531   21.32097134946643   14.14384773182076
H        -0.23688014011543   11.86048334467953   14.63385487954287
H         1.60273377921418   11.31350490939450   16.20008037027562
H         2.27001585441446   12.94612128573513   17.93032825219044
H         1.09511709206127   15.11801085947290   18.09779632266606
H        -5.59189576856507   18.41185476162043   16.09545989592559
H        -6.07993952536015   17.81938207010104   17.70104335976498
H        -6.30693043285341   16.80088469081769   16.24904785469212
H        -4.10948578638854   19.75045466954737   17.20935005662405
H        -3.04909223150029   21.32113452271330   18.76597876913918
H        -1.58051046883968   20.48759011712732   20.56420851903629
H        -1.18842006726992   18.06256866834859   20.80564499505818
H        -2.25177865315184   16.47938137700993   19.25389189735732
H        -5.51240911183297   16.47534361454271   19.41682884355539
H        -5.82964901077766   14.54818442094498   20.90890942024288
H        -4.72788728006225   12.39947918408663   20.41049613743937
H        -3.30936578631505   12.17934944824690   18.39999512565675
H        -3.01552820772698   14.09967332486461   16.88178550703700
H        -5.96747700074210   14.52005217064499   15.94188852072382
H        -4.82958722517290   13.26512657702433   15.43100133055182
H        -6.34949469697399   13.48680735886917   14.53301899705253
H        -4.91579469979456   15.85789726497097   11.17399803551231
H        -4.56333174081191   14.56536642608789    9.11208546773317
H        -3.93817936815253   12.18088955521558    9.23573045398818
H        -3.66926158290921   11.09403303000044   11.43382004089268
H        -4.00772889403764   12.37723926881431   13.49600126104798
H        -4.82269587566372   18.07371053290613   13.75433148543405
H        -6.57575980179845   19.61564393389476   12.95873705418536
H        -8.76333984328296   18.72871635091641   12.22894627746005
H        -9.18155052897002   16.29946099336951   12.27177720873177
H        -7.42585433102937   14.75603069190904   13.02902603551019

