108
CSD_code = HOGNIB | q = 0 | S = 0 | Stoichiometry = C43H56Cl2F3N2PRu | MND = 5
Ru        8.70578102084624   11.80528945118080   12.85963212273860
Cl       10.83545913680416   11.22470794732493   13.70047619378265
Cl        6.85066444206007   12.11260082962578   11.41128353020933
P         8.04119041926313    9.56181273041518   13.19115546319833
F        12.18448745541042   13.48876638143921   12.34468974671684
F        14.14707991400998    9.99548376189418    9.91110918726769
F        10.00865885989350   11.75015245220814    8.57046638436038
N         9.91511469703107   13.43668942598078   10.79372847766028
N         8.77290486222137   14.74391430417283   12.10416347324307
C         9.27486890820682   13.52400053392510   11.98628604196059
C         9.79873257989813   14.66279781397948   10.00237960665691
H         9.22022735809911   14.46144595726566    9.09539033575136
H        10.78970902812149   15.02862454488511    9.71770552517055
C         9.06855013012026   15.60502803067537   10.96196005068523
H         9.68659112710670   16.45083459174522   11.28358660688934
H         8.14438732988133   15.99357380701700   10.53160738636036
C        10.98100937677107   12.55028165143798   10.56015240967223
C        12.09938848886376   12.54254336674667   11.40655035409115
C        13.16254545856984   11.68027998107950   11.21750181747878
H        13.99376005890053   11.67999997945179   11.90205473965130
C        13.12294057119755   10.83452828240534   10.12463553383131
C        12.08545452964217   10.85621437473699    9.20814032056238
H        12.10355152962338   10.22520896721314    8.33501988320015
C        11.02407042063412   11.70958086963762    9.44930333225640
C         8.16625076994411   15.28909438674257   13.26781262473274
C         8.97352871447706   15.53415192192815   14.38416246930260
C         8.39080038752782   16.08719143022343   15.51373359968346
H         9.00570970690044   16.27308827283580   16.38275926713697
C         7.04326555126396   16.41276886611491   15.55162960135760
C         6.27513687753403   16.18743164712392   14.42035937880083
H         5.22600439351071   16.44526567083576   14.43424690062276
C         6.81294616696784   15.62962528454386   13.26952462900348
C        10.43947168168254   15.22858799827564   14.36121064770655
H        10.90252788749696   15.51426911036692   15.30143835269780
H        10.93672806548769   15.76806874472674   13.55613735872617
H        10.61540897920486   14.16620938762623   14.19934291577693
C         6.43247127644878   17.02571447499833   16.77430532844128
H         5.42450200694559   16.64700743352337   16.92771264265010
H         6.37255834392102   18.10853444517186   16.65931114010870
H         7.03012198005520   16.81022226930159   17.65630773584193
C         5.94160915136083   15.40963629928856   12.07269767027413
H         4.90068464324974   15.34235349234689   12.37715533058270
H         6.21214981761919   14.48884632091010   11.56099582787082
H         6.03071722798310   16.24254219709000   11.37362637927871
C         8.19204197344525   12.56164214097024   14.54047512344842
H         9.03578991101360   12.74837830273394   15.22257060814866
C         6.94634504828546   12.90782617444635   15.14008239816383
C         6.92728304764630   13.27072861314771   16.50092443762317
H         7.85491611765120   13.27238054186128   17.05533176820532
C         5.75027389304083   13.60698251890993   17.13327569998384
H         5.75955588119151   13.87157336814509   18.18092660585040
C         4.55613797390611   13.61304550854741   16.42797309128407
H         3.63488560764751   13.88175590479411   16.92454632674377
C         4.55237201176999   13.27280912152268   15.08324373155779
H         3.62388651576024   13.28092857413142   14.53102705735756
C         5.72243678254502   12.91889124184667   14.44669955872637
H         5.71577367804373   12.65383761369226   13.40192270575299
C         8.87902494047315    8.64909186176419   14.58713507317929
H         9.93803294567864    8.68703350976957   14.29572755300535
C         8.78251594757605    9.40761162286150   15.91157581423879
H         9.05169126455644   10.45385401202035   15.74570595026913
H         7.76596763825216    9.37870778396406   16.30509387549065
C         9.73380228245037    8.78217426256333   16.92831836961129
H        10.75904424334088    8.87753436934034   16.56536409489575
H         9.66336293939840    9.31732470327812   17.87747263904209
C         9.39701529191453    7.30837414732992   17.13661274009522
H         8.39450838662639    7.22354240862379   17.56403893587013
H        10.09923475659873    6.86045976034250   17.84276320274971
C         9.44542912217304    6.55491575292208   15.81072070979342
H         9.17497404777150    5.50765787886818   15.96658432935704
H        10.46383396552613    6.58238111378856   15.41621983121108
C         8.49260457129271    7.18781513563690   14.79677627103041
H         7.47496821884324    7.12275205018165   15.18565649037073
H         8.53884527508605    6.62943262379320   13.85960496859985
C         6.20422839205466    9.21773181895233   13.23920714097478
H         5.81082778010541    9.95782577103941   12.52703944712348
C         5.62563636401350    9.56328012632618   14.61155431548127
H         6.02768587548502   10.51847886909662   14.95476872258627
H         5.90019321914054    8.79196771105311   15.33395923358683
C         4.10391718578764    9.63119015469224   14.52924683401233
H         3.69117652596171    9.89659297409370   15.50501359712329
H         3.81627798570458   10.41003051208435   13.82096573766260
C         3.54765107853586    8.28684013881879   14.06959944805812
H         2.46114472841679    8.34159332969370   13.97553627589360
H         3.77866821990441    7.52401678567817   14.81768514450762
C         4.16298764444059    7.88625192546248   12.73223663668738
H         3.86872131249340    8.61075735814652   11.96946627501914
H         3.78471457439017    6.90737354575553   12.42787934392094
C         5.68990699564654    7.84062334110599   12.81686144866161
H         6.08123766662998    7.54363339262665   11.84402562292525
H         5.98431602624185    7.08298466162618   13.54417652906227
C         8.58828503613620    8.57386328087722   11.70759512543252
H         8.28685914854545    7.53155674490762   11.87825503482621
C        10.10230114570284    8.61624697637294   11.49783085753988
H        10.41369180850379    9.65086857003887   11.30528355745390
H        10.63645381011098    8.27810880446009   12.38770354283046
C        10.49104311651832    7.72415452186395   10.32022823889543
H        11.57032182809257    7.78046672786620   10.16009958928887
H        10.24760995769142    6.68762123783035   10.56976875944821
C         9.75432088657663    8.11689881014432    9.04202801256899
H         9.99652137571209    7.40982222857217    8.24531019861608
H        10.07983213324835    9.10557870254199    8.71925071667418
C         8.24714197821679    8.15808906000599    9.26867874267899
H         7.87751263234640    7.15311325946352    9.49116900176215
H         7.74653718759512    8.50601260111618    8.36293660269085
C         7.91871741729802    9.08825607698315   10.43135063521000
H         6.83699843686566    9.16820004631115   10.54990293269219
H         8.29428491363496   10.09365762218786   10.20466841245665

