66
CSD_code = HOGPAU | q = 0 | S = 0 | Stoichiometry = C37H25BrO2Os | MND = 8
Os        3.44963339979112    0.64101154061272    8.50067288080163
Br        5.20370653707989    2.37362457739802    8.91755324072983
O         1.53370136358956    1.82223868489348   10.51819404143601
O         2.16318532135788    2.36029053461788    6.37087650683496
C         2.26703741690025    1.39971767358484    9.74391498711589
C         2.65210252764730    1.71481232731947    7.18294255940708
C         5.05774734605207   -1.01702127910061    7.92731047064844
C         4.71130987034735   -1.20062072647094    9.32505395700781
C         3.32867526251655   -1.51569307726112    9.39131597677962
C         2.79256297800221   -1.47064674877298    8.04827160876895
C         3.89843325240151   -1.23637583733480    7.14368798449738
C         3.83866835556241   -1.38075079133722    5.68268456621074
C         4.83835972223382   -2.08506289251732    5.01355838697476
C         4.77349407884663   -2.25791430786349    3.64378432174190
C         3.71163299801522   -1.73836650774968    2.92328915011993
C         2.70851223635295   -1.04611666720695    3.58166189885170
C         2.76873476580224   -0.86806793578851    4.95001906718542
C         6.41585035104767   -0.82927808810507    7.39787511674214
C         7.45720739221767   -1.64818232691993    7.82904672008249
C         8.73021666155969   -1.47659831091032    7.31903231298549
C         8.97941572789477   -0.49086756960997    6.37908595294149
C         7.94670519470275    0.32137521600579    5.94104327538916
C         6.67166670599694    0.15348649976034    6.44377820484738
C         5.67960659145187   -1.37241065369733   10.42007471010212
C         5.57087880429491   -2.49282637308920   11.24476936129848
C         6.48413368863170   -2.70519424422874   12.25909521516831
C         7.51965962382198   -1.80866190949329   12.46486896392189
C         7.64017653866859   -0.70076493450867   11.64356673728050
C         6.73168180533467   -0.48185536512898   10.62505273982037
C         2.58960134831884   -1.91466298267226   10.59752967269516
C         1.76599345229018   -3.03811729408946   10.57760928698944
C         1.08768490267500   -3.42429923062652   11.71886007243856
C         1.22301470722855   -2.70046106247457   12.89101520677411
C         2.04583100489112   -1.58591873931386   12.92089822713347
C         2.72449584002559   -1.19414042204884   11.78428720451362
C         1.45888030823464   -1.95550959897610    7.66104518575567
C         1.33775763480358   -3.01407025821729    6.76312437585332
C         0.08792432257873   -3.49057748016374    6.41370421615663
C        -1.05243057120279   -2.92308198492631    6.95634135205788
C        -0.93930859396173   -1.87374110620773    7.85382390832890
C         0.30676375872664   -1.39082410530823    8.20384551422745
H         5.66196255883177   -2.50800785851380    5.57004735219736
H         5.55639277819313   -2.80434992940103    3.13909663539790
H         3.66485967560382   -1.87322094117804    1.85321559494591
H         1.87616573869501   -0.63903925486798    3.02742988894862
H         1.98541197482165   -0.32024721499017    5.45622280471894
H         7.26545570158242   -2.42715657388789    8.55310116096252
H         9.53061253555881   -2.11623691265719    7.66069314015083
H         9.97719240694774   -0.35524471851347    5.98960855252765
H         8.13468030127235    1.09358052576731    5.21077701721033
H         5.87085626582847    0.79979385800358    6.10835622139263
H         4.77720801048626   -3.20765777687916   11.07963990351246
H         6.38659038822884   -3.57770198388904   12.88851328717836
H         8.23060007889943   -1.97637056845777   13.26015570939977
H         8.44503427872233    0.00269948867243   11.79338095195597
H         6.83786007401266    0.39284293880155   10.00279260990333
H         1.66826975799564   -3.61705016092995    9.67089784124382
H         0.45208124511238   -4.29693571247640   11.69021346175466
H         0.68998508440965   -3.00376242055768   13.77946801148078
H         2.15638677759727   -1.01691001393488   13.83161099436268
H         3.36089153328495   -0.31878385256123   11.81107827858419
H         2.22546160163480   -3.46887533631006    6.34744045211592
H         0.00652547771543   -4.31038317011837    5.71550831665286
H        -2.02688898343775   -3.29659805274661    6.68006866206966
H        -1.82476897785131   -1.42611982871821    8.27937720898024
H         0.39626908313692   -0.56094077168737    8.89334080372988

