60
CSD_code = HOGQEZ | q = 1 | S = 0 | Stoichiometry = C24H25FeN6O4(1+) | MND = 6
Fe        0.42396368655857    3.52668674964257    5.90470537806005
O         1.12216140160684    1.86442720558580    6.37314703367422
O        -1.27948851885230    2.67022519086972    5.47430565007213
O         6.00453833815810    0.11364974153240    8.04345014871013
O        -5.91813077297981    4.70393058107826    3.39684738123868
N         2.07807176230550    4.41763487322762    6.27031905138983
N        -0.22713784771182    5.22221685361794    5.44302485483284
N         0.95738164338459    3.19078480036671    3.99142980276139
N         1.06032363371930    2.06038559363472    2.12411167835346
N        -0.22553321417992    3.78309727954132    7.79962151557152
N        -1.58638280882231    3.80826006062833    9.51254730424590
C         2.28111852311507    1.53315966036050    6.75800908598873
C         2.55261468511589    0.15908197707394    7.06009371978857
C         3.77238908781495   -0.25697449704284    7.47405804461759
C         4.84993395639832    0.66777707319358    7.62541809773720
C         4.64376174365250    1.99180990075674    7.35030604162278
C         3.37839553506938    2.47501355580354    6.91659573469328
C         3.22466253336674    3.82921615008069    6.66716799149224
C         2.02221887779608    5.69990718474277    6.07806222021583
C         0.72691157217577    6.28585045591607    5.65605796464135
C        -1.39671125288223    5.53241704690565    4.96800760085930
C        -2.44764375935838    4.62670482756699    4.71548963712488
C        -3.65639810702126    5.13629078847777    4.17864063703764
C        -4.72187791115082    4.31665804540691    3.90834748456447
C        -4.60366774548146    2.93109070754471    4.17584777996867
C        -3.45769082752731    2.41093886613088    4.69027031925081
C        -2.32140757249449    3.22234638906317    4.98666342509301
C         7.13335672640740    0.93777127440503    8.22872623950446
C        -6.11524776170883    6.06453443525961    3.09459518324467
C         1.60688894057225    3.94570774527353    3.06248883316809
C         1.67872016025092    3.25242823705016    1.89113024990381
C         0.64114550915681    2.06174930946967    3.39883408593585
C        -1.47580338469770    3.92263394933600    8.17852650653893
C        -0.33919516470014    3.58006624095110   10.01081988750833
C         0.49698289068213    3.56754061690130    8.93476180133267
H         0.93995944756194    1.31572919810184    1.45558179702415
H        -2.43761602318445    3.86372764512729   10.04941702271577
H         1.73287192007063   -0.53281659346070    6.94566721526276
H         3.97248090964383   -1.29160236999987    7.70277723509150
H         5.43824135513524    2.71372291770857    7.45735502280333
H         4.08950213527396    4.47509375659170    6.81085543918525
H         1.98386785667574    4.92009881158966    3.29322765282583
H         2.87895564721286    6.34898414513064    6.22767171602150
H         0.36281595565225    6.96645501279331    6.43959686091717
H         0.85566982584360    6.89213022506982    4.74870337979453
H        -1.60053075059891    6.58016635513224    4.73719103479295
H        -3.70900189245158    6.19740934914644    3.98812953222158
H        -5.45477941326804    2.30575780439073    3.95658482963511
H        -3.37035129605280    1.35550257988088    4.89610807673310
H         7.93054226877192    0.27538580854489    8.56013663538818
H         7.42901549469825    1.42371988881616    7.29439641385638
H         6.94995296335443    1.69728038904490    8.99433128269698
H        -7.12628200030125    6.13478703456077    2.69815719238853
H        -6.03334189633383    6.68987473512988    3.98934508569212
H        -5.40481237002239    6.41391508009913    2.33875840450237
H         2.10636101894744    3.50751939512623    0.94416468193791
H         0.11585918750692    1.26423792837357    3.88200096075300
H        -2.30066275001445    4.10021067781920    7.51933261347297
H        -0.14831506896248    3.44849847486455   11.05518971044393
H         1.55617291710428    3.41629288007058    8.90529183309418

