54
CSD_code = HOGRAZ | q = 0 | S = 0 | Stoichiometry = C12H30MnN9Si2 | MND = 5
Mn        5.49618735889454    4.72153354723622   13.47822573711238
Si        4.41000076283520    3.53060087963952   10.75587142731128
Si        6.65487219484485    5.54149682211904   10.65063968601761
N         5.52007229674557    4.59880766298969   11.63925985955009
N         7.15449511515039    4.72667442544431   14.26793010557557
N         7.63975071847009    5.89328281001118   14.65336803333196
N         6.84449442051112    6.85398991183275   14.47558677498195
N         5.69825651600480    6.49393045644645   13.92342051686915
N         5.27938088712651    3.02365221468651   14.14937808792310
N         4.11800271881697    2.73797042624654   14.71322134824728
N         3.31990670954943    3.71236307861134   14.74026758535482
N         3.81772283307126    4.81826462059359   14.21671080244453
C         4.74249244851243    7.58525704414333   13.89510699292291
H         5.11579920894864    8.35954230445156   13.21387335757657
H         4.67237797104322    8.02679900324860   14.89809910622286
C         3.37714686149730    7.08357320165665   13.43783005049468
H         3.45783473555662    6.70476702228142   12.41395081667280
H         2.65571273521736    7.90082215792647   13.46058632957283
C         2.91733380559554    5.94971636048956   14.34823802311042
H         2.89794959034526    6.28484494114803   15.39451670734289
H         1.90773372011426    5.61758645448936   14.08169374350350
C         8.04915512068813    3.62458293694670   14.57302038992269
H         8.04054783755398    3.43221254706219   15.65484207790098
H         9.06600802733513    3.92000545729146   14.29113859016297
C         7.61207523362655    2.37833834933661   13.81029638794161
H         7.56071150697339    2.61619153629609   12.74302270372815
H         8.33083724581605    1.57266161647014   13.96257629697566
C         6.23360787395263    1.94002638871027   14.29266068689559
H         5.87771677269914    1.08137933555112   13.71043006169485
H         6.27520774831059    1.63596149731405   15.34702244657355
C         5.30541898277939    1.87765064025087   10.38760412954971
H         4.71465827531925    1.28113291675263    9.70008627485046
H         6.28299134388833    2.02354426792128    9.94279153539812
H         5.43811007993421    1.29352157933285   11.29286754988063
C         3.76099580288115    4.30447296211495    9.13049336888184
H         3.22754681809836    3.54575687049043    8.56655983544515
H         3.05807669726629    5.10841092955523    9.32863749317766
H         4.54063040465814    4.69908458363191    8.49151311640430
C         2.79327861651170    3.10856608932823   11.68196682807896
H         2.95154339478706    2.46309664386881   12.53884189494713
H         2.12811287544228    2.58160984170660   11.00415047280173
H         2.26836215232771    3.99424808813579   12.02652587366485
C         7.34928071012996    4.55543693069588    9.16487790746209
H         8.05159872276326    3.79355614111062    9.49023617691448
H         7.89233294596225    5.23308204043288    8.51376214421092
H         6.58846478191410    4.06832855096373    8.56859329845785
C         5.77079576002425    7.12606672311787   10.03665064595576
H         4.81231743484989    6.91625881390151    9.57638399962653
H         6.38695546587883    7.63310682522919    9.30139715701540
H         5.60035835654403    7.82140108785347   10.85253506981031
C         8.24440902915835    6.09106001531895   11.55661272032251
H         8.06200705361133    6.84753031232704   12.31187982013733
H         8.93000565992232    6.52167969528525   10.83267323554104
H         8.75765765953886    5.26236244000293   12.03467471752933

