53
CSD_code = HOGRAW | q = 0 | S = 0 | Stoichiometry = C18H26N6PdS2 | MND = 4
Pd        1.52077752476312   18.75983916865639   14.99609932230698
S        -0.22867850301471   18.35844198371139   13.47194083307879
S         3.22205647073657   19.94064504606312   14.02572814507761
N         0.03054928052906   17.32502569725120   17.13356166841001
N         0.13542371772782   17.72832488702373   15.87936561072137
N        -1.82636677690683   16.74958214710803   14.91541627206163
N         2.62638592572055   18.82332166665207   16.63057873671653
N         3.81242336385137   19.41298447570501   16.60640446595814
N         5.40864438148994   20.52900541283707   15.42379856568374
C         0.71642605006304   17.13878718145152   19.36249933062125
C         1.12277209402732   17.87677957877006   20.47255180809370
C         0.85435052569618   17.42554075491396   21.75162426924141
C         0.17660197937632   16.23385979579435   21.94588430311514
C        -0.24139386330300   15.49792156531960   20.84931034248471
C         0.02359680971716   15.94715834608590   19.57046232363201
C         0.97583625138034   17.60615969737006   17.98975486997806
C        -0.72743930428607   17.51114841942320   14.89073204638296
C        -2.21318830979569   15.97099179703226   16.07658729094098
C        -3.04052313564773   16.79333137054483   17.06041663026600
C        -2.66672368990254   16.65954253802258   13.73815643404105
C        -2.22424074590703   15.52533543143853   12.81813124901192
C         2.21915162590173   18.29318813445681   17.75108055169235
C         4.19378757726280   19.95353473489172   15.46041520997388
C         6.18574287709250   20.60641002551908   16.64420829220373
C         5.68540428536363   21.69183983459732   17.59455708682064
C         5.89598334183185   21.16522912249292   14.22202628312802
C         5.40113508377161   22.60134227826886   14.06138984034454
H         1.62773986066972   18.82197343424984   20.33879277117058
H         1.17261899596571   18.01041904258308   22.60229022493415
H        -0.02806642571205   15.88274502850411   22.94639432611216
H        -0.77310900143145   14.56853634095522   20.99308979798565
H        -0.29456323374206   15.37164633630272   18.71523047979729
H        -2.78760577978160   15.11201347039578   15.72215064227509
H        -1.31185536701628   15.61154437182687   16.57570064195917
H        -3.37349981229725   16.16248342992345   17.87962887360332
H        -3.91163398271458   17.21993759747093   16.56857753710547
H        -2.43470482192223   17.59721612833077   17.46921319975739
H        -3.69591589721505   16.50492071653480   14.06997510579012
H        -2.60856762317682   17.60789265534175   13.19893049454883
H        -1.20857148332731   15.70416145420136   12.47580457295198
H        -2.87829100404323   15.47607689512867   11.95258081289049
H        -2.25687273318810   14.56931650582454   13.33630927369750
H         2.90127946237441   18.35706950728495   18.59483174995675
H         6.11805447176987   19.63767036380982   17.14605447220604
H         7.22592112141776   20.79504368116650   16.37082335740061
H         5.76118102168623   22.67569033567371   17.13977944660280
H         6.27603432203763   21.68250041598625   18.50678825347156
H         4.64649597266833   21.50066946677270   17.84656291848520
H         6.98837418974484   21.14497628779839   14.24915083286457
H         5.55672262633965   20.57470508562059   13.36646307324970
H         5.74502123087859   23.00154689268964   13.11171775376605
H         5.77397913785683   23.23499502400086   14.86188014928659
H         4.31503991461936   22.61947844023185   14.07219745614123

