60
CSD_code = HOGTAZ | q = 0 | S = 0 | Stoichiometry = C21H34Br2N2Ru | MND = 9
C        -6.13278513697547   11.95956116938201    5.11574612832721
C        -7.23465272874510   11.88357789143308    7.05953966564092
H        -7.37020723800429   11.71073056447940    8.10686681889127
C        -8.10006752765793   12.31141360478643    6.11654686772384
H        -9.13310646866221   12.58187583953684    6.18622163763591
C        -4.87674379472748   11.22415022123544    7.17266928910318
H        -4.11236144663538   10.89365972674208    6.46765846357560
H        -5.16982919893502   10.37452513514145    7.79867531175557
C        -4.30712897382225   12.34800074587040    8.03933460948732
H        -4.11996107480003   13.21453028985460    7.40441112946079
H        -5.03356569353503   12.63067309608266    8.80460950737861
C        -2.99598886699517   11.92404919502651    8.69327563167199
H        -2.27800346709314   11.68661296802497    7.90749568623189
H        -3.15729693785426   11.02654950242612    9.29638310018075
C        -2.42863728773208   13.03512841384521    9.56589594932615
H        -2.23917515286331   13.91901350701383    8.96316666961807
H        -1.49246094919481   12.72119923323218   10.02019124383029
H        -3.12552560038160   13.29808087686599   10.35926184360759
C        -8.05512835886131   12.78901754660654    3.71428121083370
H        -9.02761951376633   12.29132858381479    3.63753427226068
H        -7.43926142717862   12.49407531732427    2.86312158976581
C        -8.23916036782295   14.30701536436463    3.70209341704998
H        -7.26488904686012   14.77647461256774    3.84105905825057
H        -8.88755310505279   14.60658903034237    4.52873717204220
C        -8.83042351607731   14.77690009583224    2.37702821977225
H        -8.15220133540156   14.48967469778894    1.57273810768368
H        -9.79280358027330   14.28615951209553    2.20824231028756
C        -9.01401208723202   16.28816988610718    2.35836439118042
H        -9.67802227911542   16.60699791746068    3.15938890443816
H        -9.43964005124003   16.60803551871455    1.41076200554003
H        -8.05368780447440   16.77949557965002    2.48766508049528
C        -3.28430769992076   10.12500277729327    2.46169950528331
C        -4.37685693002647   10.41878238786607    1.64082015887318
H        -4.21825240684125   10.83456715020717    0.65226788131415
C        -5.70622022953836   10.13944600551758    2.05214713834147
H        -6.52513656201284   10.32445907796198    1.36440981094313
C        -5.95987261705164    9.53927266621344    3.29707700368148
C        -4.85395937257013    9.22999889717639    4.13986515162716
H        -5.02430732690276    8.69266539778421    5.06739374998997
C        -3.55036709723459    9.54601708941485    3.73595824018271
H        -2.71247458683514    9.27518366892717    4.37257297839965
C        -1.85558883373432   10.33251247861787    2.01651224747421
H        -1.22540111601143   10.37227489224076    2.91334902581046
C        -1.65573113232521   11.63851479384425    1.24736843686196
H        -2.14002955832687   11.60991444127888    0.27351290691707
H        -0.59389270566601   11.81116219457369    1.09154605200554
H        -2.05215053370831   12.48166078246977    1.80989799440335
C        -1.42496170891614    9.12796515890279    1.17186313508689
H        -1.52887323703400    8.20102939455737    1.73443745783463
H        -0.38469901499061    9.23690145961625    0.87578960562716
H        -2.03386336231264    9.05574463089208    0.27181792757300
C        -7.34405732043957    9.10106800910021    3.67939944856471
H        -8.09972473213597    9.67818866374741    3.14984260221073
H        -7.51060447089984    9.20159034418292    4.75147008400628
H        -7.47420342908067    8.04916916457059    3.41714064006968
N        -6.03692478836192   11.66453886073899    6.43405596638957
N        -7.41678122588210   12.34631950390704    4.93119378788673
Ru       -4.76910014188746   11.44625214160409    3.66607116314173
Br       -2.87187096195328   12.63590940955044    4.82632101807305
Br       -5.04598687943286   13.59892291359208    2.38963358838256

