101
CSD_code = HOGWAE | q = 0 | S = 0 | Stoichiometry = C26H64FeN6Si4 | MND = 4
Fe       -0.85805968717364    1.22915445447023    6.71504478956326
Si        0.51354535243958    2.41120476942497   11.45846311289263
Si        2.09490759923089    0.39492777303028    9.64145082243833
N         0.82030331406841    1.55029112156209    9.96101547469688
N        -1.03525133699553    1.05383170380019    8.49826354429776
N         0.10392815949812    2.88100318650125    8.08362014761202
C        -0.02525494338275    1.86689087800223    8.86745189501099
C         1.28301844757481    3.70063513525675    8.03215812417227
H         1.87105373353219    3.60864983175858    8.96004692254272
C        -1.65966875978753    0.10754139609017    9.38955874713154
H        -0.95391043248916   -0.17528233040197   10.18557059927768
C        -2.05176052882414   -1.13165968081595    8.58203097925904
H        -2.74097954577679   -0.83935358803497    7.79176622684346
H        -2.53407394524575   -1.86960132948963    9.21817774992317
H        -1.17202863440259   -1.57844630331224    8.12344528468100
C         2.09343718619186   -0.95839870259544   10.98821316053529
H         2.35688540149626   -0.54829696808207   11.95719957801568
H         2.82806473523471   -1.72064537041757   10.74952630082305
H         1.13097767758198   -1.45079904240896   11.08645540421673
C         0.86268272935608    5.15736069917082    7.83893397517159
H         0.32784418811626    5.24994847376467    6.89880536199060
H         1.73629746898545    5.80540617863859    7.82119734336323
H         0.20634723651061    5.47315097154014    8.64490702377779
C        -0.66839922736034    3.87103966605257   11.13540159826167
H        -0.12338967872411    4.80716271209486   11.06356913092003
H        -1.39267096000273    3.97772878536598   11.93772308502070
H        -1.21004890415164    3.73776594727759   10.20463646902821
C        -2.90668670581929    0.73631705856854   10.02395055751370
H        -2.63598974679138    1.63872445706229   10.56539477396680
H        -3.38086117945048    0.03750058545335   10.70994699780158
H        -3.61471724654993    1.00276246033368    9.24263398889676
C         2.15306144610346    3.05762168912247   12.18517959535441
H         2.78163393107264    2.24313076599604   12.52885504339043
H         1.95460034848110    3.69673701589409   13.03954682202425
H         2.72355655124756    3.63698701580202   11.46695156651579
C         3.82130562075706    1.21565878149247    9.64666837473947
H         3.84496032871046    2.14642262464230    9.08977590980890
H         4.55887303028634    0.55118633736415    9.20638618912806
H         4.14805712501253    1.43200157225035   10.65796720511423
C        -0.27317613717505    1.25146988668741   12.76047166542250
H        -1.26630002921048    0.91855696308689   12.47689290188174
H        -0.36268103573866    1.76945422822395   13.71062075388234
H         0.33267923521075    0.36788705509975   12.92942943909002
C         1.79976072752291   -0.42813312251825    7.94935646879489
H         1.20560628100297   -1.33114673461781    8.05698631639674
H         2.73694239071821   -0.71266525752157    7.47981646964250
H         1.27044572620639    0.24262971647538    7.26707745118137
C         2.11771060730743    3.23559013077091    6.83348315467603
H         2.58958349053205    2.28019150259738    7.04414395982542
H         2.88611734206784    3.96578412818001    6.58924304379371
H         1.44848848678507    3.10397433829895    5.98486062695099
Si       -1.00323030675717    2.39911913617391    1.73853426265435
Si       -2.97941181611594    0.25150743763689    2.98480741713396
N        -1.68895269699861    1.43008339231774    3.02511000167200
N        -0.09205979508413    0.90973245808133    4.76735000927980
N        -1.57534514587639    2.41614945968065    5.21824739183752
C        -1.11088926703050    1.60081800976346    4.30858384906010
C        -2.74061439162329    3.24469161295589    5.07896070063161
H        -3.11730512023628    3.20726998068762    4.04538477911915
C         0.59746321744605   -0.06995254965221    3.96717614902269
H         0.15230526493195   -0.10025812318337    2.96273812961591
C         0.48140373955028   -1.46391162884549    4.59117089657196
H         0.90888652143164   -1.45677922781984    5.58931206727853
H         1.01360609080605   -2.19311685395855    3.98375671018833
H        -0.56149091005406   -1.75859002994700    4.66041067646548
C        -2.60576576689792   -1.06631628065630    1.65506273582550
H        -2.60711500938916   -0.62725418303872    0.66302804392604
H        -3.36597398473021   -1.84077951460926    1.66686245054770
H        -1.64382789373121   -1.54626740035189    1.80483243687484
C        -2.35863280052506    4.68273654782516    5.43790434785082
H        -1.95354518017834    4.68684445177710    6.44598783246456
H        -3.22557339991061    5.33813328806324    5.38814487990223
H        -1.59789550118626    5.05090530872730    4.75563821814272
C         0.08880422555532    3.75446538515252    2.51328710506150
H        -0.45554468634203    4.68660012597833    2.62856173542021
H         0.96106446376650    3.96046912466586    1.90007475966902
H         0.43065178408268    3.45030363701560    3.49720932922835
C         2.07176199485593    0.33117155057663    3.84620582343283
H         2.15307190127621    1.31365280807070    3.38866371324961
H         2.61637625383260   -0.38958947044309    3.23969355380499
H         2.52028373323081    0.37666581269550    4.83492132785937
C        -2.40725422055462    3.19184706830305    0.72015890735318
H        -2.94224446835129    2.44885252499243    0.13829206652653
H        -1.99848455057833    3.91603375833850    0.02304931797607
H        -3.12782662728284    3.70808981054595    1.34571627232270
C        -4.66396096646505    1.04813277059427    2.56080800379194
H        -4.95974270161636    1.80798235470645    3.27680661303077
H        -5.44048354367205    0.28925844622454    2.54875267663610
H        -4.64912413303131    1.50989179203998    1.58028868604796
C         0.05957434600142    1.35368203091606    0.53951746946233
H         0.99746701838243    1.04295962866577    0.98952460380247
H         0.29953721258406    1.93375979721455   -0.34681707155829
H        -0.46101254247228    0.45944949335924    0.21233082187656
C        -3.14650517490291   -0.60875137405793    4.68554292397111
H        -2.87132956759349   -1.65787915733193    4.63203761793018
H        -4.16901271941866   -0.56791497396873    5.04969882142808
H        -2.50463566900811   -0.13053370405455    5.42971450094551
C        -3.81541811472783    2.74625950027195    6.05244706650771
H        -4.19328539923843    1.77647709790530    5.74238101658249
H        -4.64431483416291    3.44823116781703    6.10861644924442
H        -3.35601609552963    2.64701413608507    7.03593977376651

