54
CSD_code = HOGZUA | q = 1 | S = 0 | Stoichiometry = C23H25ClN3ORu(1+) | MND = 9
Ru        6.39157140036296   16.18303169860152   10.02821879618444
Cl        7.84172831605588   15.18602147945219    8.49901789489471
O         1.71805961500091   10.80866282170033    9.94738682349366
N         6.74763522704543   17.79343209549083    8.92119867628998
N         5.00286756167773   16.03754615676032    8.66626912614885
N         0.34279708582358   11.59720013473212    8.34123912617976
H         0.19619463508335   12.21786395588577    7.56541714969378
H        -0.26693750360678   10.80060928218776    8.43689230024698
C         7.77403458765636   18.61841136672432    9.09981216055660
H         8.40981814092576   18.42717420233480    9.95492772730317
C         8.04794584209537   19.66063285850357    8.23354194608696
H         8.89171387131223   20.30415985751235    8.42016363732887
C         7.23224745814853   19.85331400865453    7.12153684033323
H         7.43073380533252   20.65622000592372    6.42994073148595
C         6.17987728050449   18.98634463656393    6.91110178524225
H         5.53658305771060   19.07669267170557    6.05092567387190
C         5.96036750296251   17.95304709391151    7.82635295597837
C         4.95622302259703   16.93946762595301    7.73091349896164
H         4.23945531107845   16.90052946656551    6.91951745408932
C         4.10002024830075   14.97396214103487    8.70036495273340
C         4.59887525907290   13.68557946436933    8.91047276137825
H         5.67025815620699   13.53788292302024    8.96365020075942
C         3.72532921935748   12.62312701092814    9.00506244874160
H         4.08923119622068   11.62303997329770    9.18376119308102
C         2.35161058879157   12.82149294859390    8.88262096562954
C         1.85970553755876   14.10222209333659    8.65166221376489
H         0.79635248384969   14.27265771874487    8.57712447595576
C         2.72633722333286   15.17532006310364    8.55743314336889
H         2.34489186681826   16.17536122806166    8.41101525334446
C         1.45353275035805   11.63875944304559    9.10735154122049
C         7.23619792337952   16.96729833175247   12.10107121010856
H         7.87025398272604   17.80623527556575   12.36811408138960
C         7.80503041704646   15.69842219552179   11.94057897411218
C         6.91926330374064   14.60016706670548   11.70986804131494
H         7.32933348318554   13.59909519176134   11.64414096201001
C         5.53544051901948   14.77286598794777   11.72133717494287
H         4.88151962020018   13.90874961058510   11.68556429986608
C         4.96434645274572   16.06873392430171   11.83919904189342
C         5.83760589392925   17.16781839050067   12.00084697388090
H         5.42509136690549   18.15274123825480   12.19521429146774
C         9.27690152473282   15.48748091325355   12.20181001368907
H         9.80128033898875   16.42465770972270   11.98284559639650
C         9.44146736372639   15.18195100510782   13.69784683609395
H         9.05197911239048   15.99295709152493   14.30952404019614
H        10.49495552423849   15.05119893875613   13.92775215046302
H         8.91594028480764   14.26663123043907   13.96085290483801
C         9.89808186608916   14.37858496881189   11.35416599199755
H         9.56894653101126   13.39593921868259   11.68240358017934
H        10.97958280604423   14.41385976878992   11.45033062072581
H         9.64318959317712   14.50523666055597   10.30444922564685
C         3.48099367688503   16.23826358830125   11.95160212632926
H         3.19121699300862   16.13430535985091   12.99859290324967
H         2.94981697498273   15.47755193183707   11.38297621150839
H         3.16720369946978   17.22388797477277   11.61361929337017

