29
CSD_code = HOHFES | q = 0 | S = 0 | Stoichiometry = C13H7N4O3ReS | MND = 6
Re        1.45525878910522   13.77683386556235    5.47501413323252
S        -0.56488215544716    9.75102614592977    6.11645995346927
O         3.10216789301802   16.08162366918347    6.71478471187314
O        -0.51561366984190   15.66776877360431    4.01675438746141
O         3.26645314305635   13.52562571740763    2.97664436390369
N         0.25084058629088   13.55298270786335    7.28882848395287
N         2.50967788701466   12.26684179577137    6.64288650704225
N         2.22375539205788   10.81589904440565    8.48945318215861
N         0.36060737493391   12.08922994989710    4.97736907995863
C         2.49221539414614   15.24945368712432    6.21590027377544
C         0.24306547344713   14.98545594605534    4.53678628612351
C         2.58504577449542   13.65792414250399    3.88790795778143
C        -0.88443161917918   14.18814289970145    7.56232598134180
H        -1.13668840019888   15.02052501222883    6.91799842620219
C        -1.71949281904747   13.82123583446656    8.60400535673443
H        -2.63509799672746   14.36525193443189    8.77182379055774
C        -1.36441881064044   12.74714270317005    9.40788828840170
H        -1.99987760556394   12.42854041467706   10.21952204846378
C        -0.17953082080911   12.08858375574332    9.14025083107248
H         0.15718368825157   11.24115591017757    9.71434145237542
C         0.59936409340686   12.51849233035009    8.07032644303222
C         1.84262735660790   11.82504042889659    7.72420292924523
C         3.31315968660373   10.15725856492919    8.14936423825993
H         3.58464906489951    9.32907631552734    8.78917560965074
C         4.06110541666894   10.51431393940749    7.03307966206776
H         4.94658477689688    9.97508858633404    6.74257338020350
C         3.61503169133566   11.60465388340435    6.30703450550125
H         4.14879977997623   11.96076052705679    5.43452156093673
C        -0.04015936475915   11.08997151418866    5.45147617522024

