29
CSD_code = HOHFAO | q = 0 | S = 0 | Stoichiometry = C13H7N4O3ReS | MND = 6
Re       -1.23840310119405   -0.27666424155719   -2.83478231588159
S        -0.11545681292621    3.87294247655892   -1.39032583396399
O        -3.51848839275469   -2.23894862072657   -3.54919908697819
O         0.33448118475415   -2.34600065266671   -1.15105443389314
O         0.40612048906665   -0.91329133215103   -5.37918428070461
N        -2.34608994908535    0.58294129489974   -1.17840190768863
N        -2.82079462375492    0.76109275703471    1.12108762541419
N        -2.30102902999192    1.43129106463778   -3.67907550416158
N         0.04695928517350    1.26510129091969   -2.28497812754738
C        -2.64582306004052   -1.54208108583904   -3.29340122550163
C        -0.24484132791968   -1.60891175701565   -1.80631668676063
C        -0.19803385834344   -0.72137437058166   -4.42542693776164
C        -2.36199666213652    0.12406902609931    0.07170606636903
H        -1.96016914153300   -0.86816963279882    0.24120078482074
C        -3.31232714429950    1.97753275317709    0.93002956175114
H        -3.66665553794229    2.49405149286450    1.81086268541568
C        -3.36987873678030    2.55126110568293   -0.32740853144793
H        -3.77146821279174    3.54005044801866   -0.46406702929934
C        -2.86108009220292    1.81021609779464   -1.39335425005378
C        -2.84162442562419    2.28088357271073   -2.78522147412978
C        -3.34020593213721    3.52371410372345   -3.16897939627792
H        -3.75622511919580    4.19550587132692   -2.43718592744212
C        -3.27264502703075    3.90135355240910   -4.49653787187559
H        -3.63688101358782    4.86766538300207   -4.80873741815925
C        -2.72468396653058    3.01513905981743   -5.41156105094609
H        -2.65134380378413    3.26395344329331   -6.45767545315980
C        -2.25606890375852    1.79546938058602   -4.95705908236360
H        -1.82226084418480    1.08088699652728   -5.64473322548928
C         0.00211376053636    2.37562052225169   -1.90241967228327

