79
CSD_code = HOHGAM | q = 0 | S = 0 | Stoichiometry = C28H48HfS2 | MND = 12
Hf       -1.79436437092151    5.08758779829144    3.66761879530658
S        -3.07187411138779    6.74726593391877    5.02166161510697
C        -0.44851651704529    3.16534349841677    4.52336029040112
C        -1.18376463422909    3.56229621359558    5.67906002161125
C        -0.71739469507262    4.83957852035970    6.08939383659742
C         0.27037915920400    5.26932873776092    5.17224211911741
C         0.42789377906636    4.24564191650193    4.18824911871871
C        -0.19960070017465    1.75088671911457    4.07386041588873
C        -2.08950203280801    2.71840310638300    6.53127060654230
C        -1.08191561451141    5.45511283814973    7.40881141525174
C         1.19687880779637    6.44472900733403    5.29873659192394
C         1.54073480779113    4.19237107600499    3.17903304167985
C        -1.92047222802396    8.11897729662515    5.41362706412135
C        -2.64708563445679    9.45539437835533    5.36451783495177
C        -1.73125548623336   10.61042284657766    5.76215325610658
C        -2.44547868209894   11.95235622287393    5.66251638023259
H        -0.95370201392824    1.06909969579421    4.45474642198000
H        -0.15337161702842    1.65721070284727    2.99169952730217
H         0.76625170328982    1.42602933219230    4.46896291332297
H        -3.07429702293317    3.17599932214184    6.64548853489882
H        -2.20966824725481    1.71817018912107    6.12311611288608
H        -1.66354307719020    2.61424517260152    7.53113135132329
H        -0.91480747447695    4.73159065649636    8.20861265937459
H        -0.46702497640178    6.32670735396486    7.61805898476716
H        -2.13252327855698    5.74721114973198    7.44389600882342
H         2.19700404100515    6.09554924828891    5.56370619580907
H         1.27624610312077    6.98586728900624    4.35566550662505
H         0.86587565235240    7.13505364611061    6.07034350485104
H         2.48746401146552    3.97023252949028    3.67702278891867
H         1.36320269088445    3.41682672717390    2.43655548052706
H         1.65125756871998    5.14766486373231    2.66584763318427
H        -1.53507554536339    7.94985867580041    6.41915484186304
H        -1.09610121371926    8.08428276971416    4.69846714564223
H        -3.03444499443124    9.62311365450626    4.35781540553238
H        -3.50309596014176    9.41318068405419    6.04180641921269
H        -1.38194254468163   10.45800293267393    6.78624385396223
H        -0.85227785480759   10.61721487752314    5.11285546785214
H        -1.78131019151748   12.76273543828939    5.95471216837175
H        -2.77888584824173   12.13218428408154    4.64284711701130
H        -3.31594810425915   11.96911600362809    6.31457328005815
S        -0.51673495907246    6.74725418542188    2.31351544330024
C        -1.66816837127536    8.11892690365500    1.92150543985974
C        -0.94160471727533    9.45536697798667    1.97067514021853
C        -1.85745946606553   10.61034609663687    1.57296470677378
C        -1.14330769044695   11.95231514578822    1.67264967353992
H        -1.80750279871829   12.76265910571162    1.38041577682822
H        -0.80997216406942   12.13216063808311    2.69233963823393
H        -0.27279860410308   11.96912833365420    1.02064609240707
H        -2.20668236398776   10.45789798400888    0.54884663560661
H        -2.73648372011042   10.61708949802902    2.22220166070618
H        -0.55434375009997    9.62310723988814    2.97741205414908
H        -0.08554347590815    9.41319221414172    1.29344800290651
H        -2.05349497341529    7.94980058662544    0.91595109865741
H        -2.49257360378611    8.08419666524455    2.63662594782009
C        -3.14018138259643    3.16529555232211    2.81180315779599
C        -2.40496612835094    3.56224949931076    1.65608610172518
C        -2.87130832200685    4.83955431568230    1.24579076537221
C        -1.49925486721421    2.71834612564002    0.80385397743184
H        -0.51441938943996    3.17587316600144    0.68970191349165
H        -1.37917897016622    1.71807722458148    1.21194773621098
H        -1.92518227179402    2.61428706581307   -0.19602953892852
C        -3.85903926424853    5.26931669144488    2.16298429411819
C        -4.01655551594446    4.24560781035662    3.14695974250576
C        -3.38910569719726    1.75083167875972    3.26127232917810
H        -2.63499111796520    1.06905068602775    2.88041125527572
H        -3.43537001462357    1.65714387744698    4.34342543374726
H        -4.35494062519265    1.42597177002542    2.86613599860373
C        -4.78553845006760    6.44471809072459    2.03651736689039
H        -5.78564610032619    6.09555574503431    1.77149185014812
H        -4.86495121483572    6.98580217019594    2.97960543286550
H        -4.45452456151792    7.13508550218229    1.26496503201388
C        -5.12936098504197    4.19236713541356    4.15621644141214
H        -6.07616397181686    3.97057633386057    3.65822127904124
H        -4.95197867467903    3.41660549832570    4.89849702177821
H        -5.23963830417726    5.14756471750323    4.66963390760563
C        -2.50681657147359    5.45511150757013   -0.07362416536397
H        -2.67378043527073    4.73155145631104   -0.87341791493912
H        -3.12182785446496    6.32660830822298   -0.28291367080313
H        -1.45625230333668    5.74736318719622   -0.10867478561433

