63
CSD_code = HOHHIV | q = 0 | S = 0 | Stoichiometry = C20H19ClF20P2Ru | MND = 8
Ru        4.75016761154503    2.18948977933780    1.80997224858431
Cl        4.53147228626741    1.71319262961342   -0.60945391097844
P         3.44971792326048    3.57724505306527    0.54964226150189
P         6.32666759009373    3.62085763179828    1.17446088679332
F         1.18825731738666    4.30296595465946   -0.75102799701554
F         2.59016095833728    3.27623147491441   -2.00247098266262
F         1.66791015885422    0.98283467825217   -1.30944740978633
F        -0.01476325220478    2.12888247074409   -0.64246687131959
F         1.51725714854658    1.56790499050167    0.75280743465023
F         2.89984133785992    4.68888685105563    2.85429202373609
F         1.12867930233209    4.06240941820542    1.79308663625569
F         0.79070069895383    6.57415195813399    1.82357685284727
F         2.01088383959575    6.52436580878463    0.05407672003297
F         2.89669220773695    7.00235463213368    1.93879418722065
F         8.77663489723258    4.23141451057234    0.14297173146067
F         8.80518609476369    3.06903772419828    1.98522739672573
F         9.52604865746310    1.46551471860879   -0.07451382512829
F         7.53562370150794    0.98267410317388    0.57844315390343
F         7.83180300042273    2.10160499346395   -1.23853085667436
F         5.49086703537741    5.71873773434916    2.40632352093001
F         6.92303195704404    4.57179798979136    3.56794831269588
F         8.99431854088643    5.75744186907033    2.31176508065471
F         7.56621440053839    7.20490355933526    2.99284598736805
F         7.68319130967133    6.72722191709413    0.90310657582549
C         4.66443623962330    2.00982721096619    4.03791546991535
C         3.44283854471462    1.45344367727266    3.53910435159821
C         3.77300527109200    0.36636358521805    2.67531188686585
C         5.20486509413689    0.18452004865875    2.71057701085902
C         5.75615961895668    1.18727102901149    3.55145967641117
C         4.74326630298376    3.00703639268633    5.14961020875361
C         2.07785378430371    1.82429663590811    4.01540928586715
C         2.83868195243382   -0.66113028511334    2.11841801972382
C         5.89429254473504   -1.00904503451765    2.13426042974843
C         7.16077864806676    1.22871093181944    4.06514670967826
C         4.42597001278634    4.87408692389320   -0.36251422769098
C         5.91042347822289    4.50311079454493   -0.39932490952672
C         2.07330510810971    3.27967998191975   -0.76037253523533
C         1.29679012665143    1.97016453704862   -0.50837488797482
C         2.29793981795726    4.73438241432482    1.63487505776985
C         1.98251537255151    6.22370507970268    1.35639983430549
C         8.15925248772101    3.22888464931336    0.80679163874979
C         8.28419768238873    1.92747445650818    0.00022626710089
C         6.70156670257255    5.10024565929429    2.34293023087654
C         7.76007524463372    6.20968664007319    2.13194928307422
H         4.30758752028026    2.57232202480554    6.05039838548514
H         5.77196372647292    3.28208190855595    5.35902979927599
H         4.18566385919380    3.90874318798733    4.90559860946228
H         1.81620582511151    1.17595034199909    4.85409422272207
H         2.05190705358654    2.85315302868965    4.36195321125946
H         1.33036899610778    1.69639319177885    3.23759011846677
H         3.01051705135921   -1.60914371360848    2.63096999736311
H         1.80254754707977   -0.37138503581354    2.26176871302761
H         3.01543994538632   -0.82136919847542    1.05548395792019
H         5.57000415262904   -1.90191375051205    2.67158215866233
H         5.63725883387256   -1.13651492435656    1.08405203650415
H         6.97311881524933   -0.92571401544443    2.21876513937772
H         7.20986017308575    0.66088242038268    4.99590000122226
H         7.85377664364966    0.78332902094727    3.35597321040237
H         7.48399966392809    2.24592225389692    4.26931319821082
H         4.30939150282673    5.80996146628794    0.18974177633291
H         4.03350859906643    5.01419288132932   -1.37437025288314
H         6.10235911086536    3.79426615285773   -1.21358280508771
H         6.53154222214506    5.38800497929834   -0.56008943621017

