44
CSD_code = HOHHOD | q = 0 | S = 0 | Stoichiometry = C13H13CdN7O8S2 | MND = 7
C        10.04623701389128    0.78784678996873    9.77414680770355
H        10.47777721436938   -0.17647632713601    9.49787598750607
H         9.21623197241571    0.61833749786423   10.47163123262274
C        11.08527172401955    1.72342868020501   10.37349378420684
H        12.08915663691439    1.51355255385072   10.00761554624854
H        11.08799825281340    1.71247012636696   11.45893965409895
C         9.62025843774053    2.76692753796942    8.57472430087972
C         9.13730490629638    4.84945628864125    7.83597296837417
C         7.59867121406181    7.76527635139667    6.00401008208367
H         7.59927615760278    8.84508902311725    6.00297201773146
C         8.37603256358948    7.06436461477679    6.91307766727320
H         8.99886128762547    7.55873390190254    7.64228101199011
C         8.34325638224452    5.67211515558276    6.87705522280270
N         9.54289005229142    1.44607292642585    8.58832334535867
N         8.97626743196746    3.50647549138660    7.69054317162864
N         7.59754800925393    5.01041087384954    6.00605595989161
N         6.56824259003127    2.22248817055447    7.99364208601890
O         9.84565632513810    5.35646778136597    8.69617337809716
O         7.07782946118502    1.30530485690453    7.31917774197853
O         6.68015590638073    2.21094718472879    9.18939364729449
O         5.96124523406907    3.10993889834284    7.40194978624483
S        10.64182432029736    3.42778708001508    9.80071761755285
Cd        7.60251367162978    2.86987006814853    6.00238929939439
H         8.82418127598925    0.99321661480890    8.01972235874163
C         5.14060483010926    0.78800641281909    2.23846571578362
H         4.71670061479827   -0.17830637168679    2.51970089127122
H         5.95990354600556    0.62221604188245    1.52757084072192
C         4.08887388697158    1.72091956763205    1.65709804930471
H         3.09137651786740    1.50528588738316    2.03681965392525
H         4.07028867083105    1.71318951388941    0.57176827152775
C         5.57395659498267    2.76571620933015    3.43839725767506
C         6.05434994879283    4.84805864492427    4.17916948048736
N         5.66026581364708    1.44571325690078    3.41735824401671
N         6.22406810507175    3.50546930692734    4.31801740009756
O         5.33560258360930    5.35429384661586    3.32717400916375
S         4.53231653271699    3.42561644455559    2.22875021418969
H         6.38808570060855    0.99454457704110    3.97578934563001
C         6.82014167085815    7.06362945795879    5.09647311208350
H         6.19709945212951    7.55746110028235    4.36707563670129
C         6.85175421173181    5.67144151242079    5.13455460276170
N         8.63898792155140    2.23189609988066    4.00896186171290
O         8.13047120319781    1.30907730599942    4.67630941186698
O         8.52940807694723    2.22859153933074    2.81304127994103
O         9.24245607575269    3.11717750487586    4.60802004541653

