44
CSD_code = HOHHIX | q = 0 | S = 0 | Stoichiometry = C13H13N7O8S2Zn | MND = 5
C         1.42302746108763    2.71737785862288    4.25126872372875
C         2.27223881531458    0.60346166985198    4.86491756655989
H         3.15730330619612    0.33776354683771    4.27323721896304
H         1.76213731667522   -0.31686052085799    5.15752883006100
C         2.64860339764750    1.44684247009144    6.07660107446574
H         3.68670841876152    1.32501092122314    6.36995667595189
H         2.00714862353435    1.24470918217559    6.93261546359053
C         0.93919358687155    4.88377103074157    3.75192098674072
C         0.17400009150462    5.76834088177257    2.83018024154035
C         0.20438259868840    7.15912673550707    2.87089817460554
H         0.80843897747273    7.66116920987260    3.61021177687278
C        -0.55641964201681    7.85429149430395    1.94082495203843
H        -0.55644464838741    8.93418903051222    1.94084148963297
N         0.78241810525116    3.55998357932019    3.46858972682910
N         1.38308633109108    1.41242027590427    4.06295762543539
H         0.94773507462880    1.05153600377229    3.21740571074583
N        -0.55636469313555    5.12618531608928    1.94080012642817
N         1.38611235175150    2.27210056559426    0.54216713473282
O         1.64961613190441    5.29514705960644    4.65573286004156
O         0.66487828468746    1.56886115557891    1.29735011559714
O         1.05616326651666    3.44950344051045    0.39931251638271
O         2.34581534455629    1.79250818305490    0.00796661877055
S         2.37407535287647    3.21685849255806    5.60375742834342
Zn       -0.55640837169269    3.13734784167324    1.94080910897223
C        -2.53578287772049    2.71734843680558   -0.36964797488437
C        -3.38516012457899    0.60346845007934   -0.98313602499526
H        -4.27008304834622    0.33791062586227   -0.39117827164030
H        -2.87526235635913   -0.31692453181817   -1.27586641323670
C        -3.76178684612108    1.44686196288443   -2.19472853310370
H        -4.79996495712676    1.32505136147892   -2.48784754054940
H        -3.12052927749840    1.24473071440206   -3.05089541472978
C        -2.05192955489674    4.88374437113178    0.12969744909765
C        -1.28675083021508    5.76833205594381    1.05142831182380
C        -1.31719275128074    7.15911732671185    1.01073430774137
H        -1.92126823297966    7.66115543347215    0.27143237645937
N        -1.89510297447128    3.55994164120249    0.41300226723301
N        -2.49567214025712    1.41235977262847   -0.18146381439658
H        -2.06022220249055    1.05144471040396    0.66402926889518
O        -2.76240023394518    5.29510409727832   -0.77407482356717
S        -3.48711166486137    3.21686148432200   -1.72192120721769
N        -2.49906682608195    2.27179002815233    3.33901271968908
O        -1.77792236083740    1.56841993280219    2.58390765586889
O        -2.16885006054173    3.44910348826633    3.48199201004885
O        -3.45888616117458    1.79253321367422    3.87307150443229

