71
CSD_code = HOHKIB | q = -1 | S = 0 | Stoichiometry = C18H46CuP4Si2(1-) | MND = 2
C         3.27973282030772    9.31272249630393    0.54556886133853
H         3.48237540704923   10.33590294506238    0.84269263025989
H         4.22756412031388    8.78614653035017    0.51432943162682
H         2.87023845237146    9.32786651525082   -0.45947121696895
C         1.74867058619005    6.69813447408064    1.10772534736527
H         1.05504650251603    6.17931607896286    1.76306957207477
H         1.32585619443937    6.70827280434690    0.10649108856260
H         2.66775855394074    6.11935460274188    1.07823618827021
C         0.39049069525062    9.38792472365701    1.64390059490159
H        -0.30175159754675    8.98788051789349    2.37830812127129
H         0.50683249215173   10.44797574262500    1.84574501229503
H        -0.05576882393120    9.27766764548124    0.65958488015151
C         2.13452664151085    6.16409817881175    5.61850230599858
H         3.10840660308132    6.51446089216962    5.99052974739773
C         2.38688960291441    5.09808232019277    4.55791034808213
H         2.98437787589191    5.51852766979419    3.74676151602674
H         2.93612249159881    4.25648987526380    4.97979862317748
H         1.44312335932858    4.73722711953833    4.14788348560923
C         1.31336779411190    5.57278243996935    6.75914072116827
H         1.20139186655301    6.27496770348813    7.58214699541121
H         0.32080312785383    5.29765682935245    6.40369191971264
H         1.80300683828417    4.67641633569119    7.14234571186972
C         0.94793025582982    8.74150582545642    6.24524466453966
H         0.22055395174420    8.22584038543563    6.88865710690377
C         2.18917928728483    9.09296996799507    7.05398241743963
H         2.61411269222391    8.21748142443979    7.54092247005843
H         2.94113384339807    9.51742881057122    6.38906478543260
H         1.94595915346211    9.82950738492354    7.82248231715534
C         0.29445909814223   10.00399930732605    5.69371734709132
H        -0.61751880153834    9.75443522706962    5.15207054343719
H         0.04786087103284   10.70269004491008    6.49463083228089
H         0.98224366857256   10.48517076704620    4.99974946116102
C         5.86947642018638    5.72653722215420    7.79699661870121
H         4.90360457970452    6.21861799086920    7.76044626242229
H         5.70978797652451    4.67402202678460    7.58975748926700
H         6.25311407392288    5.81775119523227    8.80812828526541
C         7.19524733065146    8.37440766242497    6.94332739041971
H         6.22971610485672    8.85671692762964    6.81658420979556
H         7.52851389931772    8.55042894323847    7.96274287965769
H         7.89479831915481    8.85973993436370    6.26869389000597
C         8.81679520580860    5.77209582985957    6.88107662567413
H         9.52469733850893    6.13696481311342    6.14345082744420
H         9.17733721408102    6.05198029471009    7.86680276824678
H         8.80668581335934    4.68859893150242    6.81989872950268
C         7.23581350154950    8.16080208348294    2.31939292551873
H         6.31608631984688    7.69413320368801    1.93893456185201
C         6.85232619788412    9.39837281333653    3.12339987570802
H         6.19193457933213    9.11748382702712    3.94679542573455
H         7.74276330903338    9.87454690217647    3.53489018626224
H         6.32208227591742   10.11748661253315    2.49891672441057
C         8.14231696307521    8.56385428510169    1.16098613701003
H         8.35060691038619    7.72652554611298    0.49893722673835
H         7.66640152500668    9.35081832222063    0.57382268041628
H         9.08910040694308    8.94521761587641    1.54201795112684
C         8.59998431501465    5.59321268453856    2.31179745309885
H         9.36763169921208    6.02928463727209    1.65652708499787
C         9.24845319224031    4.49962267853540    3.15331025516833
H        10.08488299061649    4.90331609336626    3.72294250388642
H         8.51333541142586    4.11019528539452    3.85610646121866
H         9.61139795933206    3.68328993775635    2.52684649627275
C         7.47129225364111    5.01651599819180    1.46842897341526
H         7.06369320561699    5.75580095421835    0.78189166352679
H         7.82962946962128    4.16580007328748    0.88517705597205
H         6.67164636354227    4.67761391822352    2.12664700266702
Si        2.07332778014676    8.47502604518504    1.77312363593670
Si        7.07679069082166    6.49929827284125    6.52843635410161
P         2.87198035281706    8.68330395037262    3.83368632677061
P         1.25314230256950    7.60545018420807    4.76523123938574
P         6.42469640900986    5.96627130068638    4.47025599637931
P         8.08336085542985    6.95939864682361    3.51248591749497
Cu        4.65057285957953    7.31359276942823    4.07979207744924

