81
CSD_code = HOHKOF | q = 0 | S = 0 | Stoichiometry = C48H28N4Pd | MND = 4
Pd        9.27725214933417    4.20961986249604    6.89343881600858
N        10.00046691869298    4.53399736018501    8.77491441926836
N        10.61023983872286    5.50831881334590    6.05440964049790
N         8.55029435750937    3.88997328229847    5.01231567423817
N         7.94720972176925    2.90774337991552    7.73260405750867
C         8.74916086542327    2.85491360304991   10.04802131682120
C         9.70560392134081    3.86249262325170    9.92868340448989
C        10.49076809935913    4.41343271055872   11.02404535529869
C        10.64618233966950    4.11871629481107   12.37615019229878
H        10.13667938913987    3.29742579734192   12.84731465764432
C        11.49413793580600    4.90364361416227   13.13389229320508
H        11.61866309335814    4.67948979872402   14.18330180667046
C        12.19274638801596    5.97317568531740   12.58038712920179
H        12.84088649888797    6.56823120875424   13.20679009074378
C        12.06785948590625    6.26871511486354   11.23897317886526
H        12.61342243879854    7.09175447294006   10.80250778648543
C        11.22113019164843    5.48223341296681   10.47037596641585
C        10.90937935819090    5.50333151619112    9.06240030306671
C        11.53796652019082    6.34384252918489    8.16459656149530
H        12.23322014671782    7.05898219305653    8.57609763654100
C        11.42705041878219    6.30971377020896    6.78841638554875
C        12.26208615160266    7.09414644771657    5.91237000934932
C        13.23744984419722    8.04553345903757    6.17635713619829
H        13.46437830856738    8.34501277684755    7.18836917216194
C        13.91103714763001    8.60183449231005    5.10905132062412
H        14.67348481728470    9.34747303390329    5.27975607451644
C        13.62115638140688    8.20142025882364    3.80760282777373
H        14.17147096131689    8.63846877719461    2.98721428139107
C        12.64946236815079    7.25733877936143    3.53655697160080
H        12.47019784398501    6.97304474785433    2.51525067559647
C        11.94444449035240    6.69810831390852    4.59917870031108
C        10.87199125404153    5.72218596821072    4.72965981407223
C        10.16936727284126    5.14888293258548    3.67059255305804
C         9.05816455095299    4.31952112619610    3.81791459469793
C         8.22347841659688    3.82742760298400    2.73131620083194
C         8.25836146040702    3.90972662751879    1.34163872983714
H         9.04770487016105    4.41583230427102    0.81549794313002
C         7.24637159936326    3.31207789028208    0.61514413847772
H         7.26904636963994    3.37239700960197   -0.46319017289479
C         6.20116381985669    2.63344442662687    1.23582009328673
H         5.42602289669197    2.18308559636214    0.63349406520289
C         6.15614566695860    2.52868054665244    2.61028769995312
H         5.35134891344077    1.99874899975174    3.09705528940789
C         7.17045307999671    3.12430277805122    3.34693379700853
C         7.42644034997582    3.16572603064865    4.76560998479956
C         6.65841248066177    2.48518346559375    5.68996645412076
H         5.79349134186397    1.96399554957810    5.30988713893498
C         6.92440174994686    2.34266628319258    7.03762229875927
C         6.16522975498098    1.47265561747556    7.90175978445855
C         5.03997270661100    0.69452718724272    7.66810083771752
H         4.55567907698838    0.69015301819740    6.70324265563831
C         4.55245461246734   -0.07393191578911    8.70451811760547
H         3.67569604811831   -0.68712287284932    8.55677455764211
C         5.18854727792831   -0.07094913549982    9.94297804938393
H         4.79825074479289   -0.68981858310701   10.73776084128056
C         6.30814914694717    0.70209651571697   10.18369835359234
H         6.76928443754467    0.66211709994226   11.15423153104681
C         6.80509671770861    1.49913824258717    9.15560914987180
C         7.90696025826337    2.44053871663438    9.01683088911968
C         8.59166965323623    2.20626270200462   11.37154107849530
C         9.33021146276766    1.06819543161964   11.67540715271304
H        10.01238333696002    0.66707762602113   10.94047041580991
C         9.19022490533039    0.45759124957224   12.90955206716533
H         9.76687396271490   -0.42618700689123   13.13992554493475
C         8.31325612412681    0.97825396653608   13.84694345642164
H         8.20572365750135    0.50088358916883   14.80979066443949
C         7.57450511383591    2.11216385083158   13.54836808043035
H         6.89019165288205    2.51933607842193   14.27803159197175
C         7.71165967674729    2.72557864148466   12.31562326607820
H         7.13947616856536    3.60950592263429   12.07624063654234
C        10.61487269941605    5.46864975969369    2.29347270559139
C        11.54554406715527    4.65051914693776    1.66296184694763
H        11.93376725505231    3.78913832666288    2.18604917265937
C        11.96894626540117    4.94090185952731    0.37776979870343
H        12.69225383309836    4.30161127547556   -0.10674746013089
C        11.46657121587339    6.04833703658968   -0.28553452502849
H        11.79825022712797    6.27374044128575   -1.28837070635860
C        10.53850156946952    6.86662254361494    0.33870706890646
H        10.14598783656226    7.73038059718917   -0.17732956741333
C        10.11269048424984    6.57974472770985    1.62373841151147
H         9.38956356442177    7.21297507466843    2.11579006772856

