63
CSD_code = HOHMUP | q = 0 | S = 0 | Stoichiometry = C26H24N2NiO4S6 | MND = 4
Ni       -6.03307619186976    1.46871362783148   21.97980269836841
S        -4.56263209853890    1.35985559552798   23.53439893959214
S        -7.54841579984470    1.52088813512713   20.42823658294402
S        -4.79862968182583    0.28409838745095   20.69396251364547
S        -1.92306582832622    0.23835102743077   24.00209070936744
S        -2.19329862436644   -1.01187714582126   20.71499459323165
S        -7.26123787059689    2.73219490300295   23.25463659885331
O        -0.08430489577967   -3.43327041023669   21.47682189243975
O         1.09040315674232   -1.68963481734713   20.67341879656962
O         0.36600294462512   -0.59646208829592   25.10563444796592
N        -9.53738649141792    4.02345317426460   22.74233848194302
N        -9.98822137349382    2.56681561678650   20.40287148106179
O         1.18059713932855   -2.02207013734937   23.57027607801767
C        -3.38067884146642   -0.03818797664225   21.61117637845686
C       -10.60988737718455    4.39750141211344   21.85265960567516
H       -10.25217504932981    5.14727290282895   21.13340435542329
H       -11.42302453291841    4.82567705059004   22.44119213253764
C        -3.27227875648959    0.43493962582547   22.87435449913590
C       -11.10095256054099    3.16402457902377   21.09862248176703
H       -11.52956826553038    2.45048133127699   21.81758074962331
H       -11.87282950222650    3.44200139510712   20.37998985345669
C        -0.93628328871385   -1.29640527875497   21.87520281189933
C         0.17195786313276   -2.14588065505931   21.29306478872958
C        -0.82712603730139   -0.83409931922577   23.13155167103115
C        -8.81273693181985    2.45949042464160   21.07011819564956
C        -9.77614370453343    4.09536052986511   17.82133514571600
H       -10.58033114492899    4.54126747769046   18.39036680146702
C       -10.15004602661480    1.96531290984255   19.09720369073305
H       -11.21881213084682    1.91887030429491   18.87624269146266
H        -9.74866795548887    0.94692690586630   19.12091256717913
C        -8.63640397541816    3.10583064909138   22.31954234007704
C        -8.39488523642207    2.20906285145254   17.30151279578707
H        -8.11061362920337    1.18218431108814   17.47272898070598
C         0.34575324478132   -1.22618210471774   23.93163703112525
C        -9.42703535851501    2.76854564647372   18.04050259069994
C        -7.72299123554258    2.96430443525803   16.35619062841879
H        -6.91833707767639    2.52022265785217   15.79014928594475
C        -9.10344424342754    4.85087586383397   16.87823856703533
H        -9.38271413031950    5.88171432821606   16.71611911104251
C         0.92645428497394   -4.33017871235046   21.03020358877607
H         1.18136274949790   -4.12476312937419   19.98882535609134
H         0.51468438401470   -5.32982420735254   21.13985692658889
H         1.81624706598763   -4.20658006315728   21.64960104693531
C         1.45798623033888   -0.89810154789557   25.96062828082511
H         1.43249324917805   -1.95118271377877   26.24855849872261
H         1.34352255248244   -0.25924530215006   26.83229906053015
H         2.40249964661352   -0.69447959598692   25.45203713156478
C        -8.07405493640609    4.28615197473523   16.14421287865611
H        -7.54652019551183    4.87696097520564   15.41044641023783
C        -9.51192387377107    4.60892309458852   24.06486625005450
H        -9.63492325024981    5.69236843415147   23.97299122115014
H        -8.53543778549460    4.39794469827584   24.50490664528096
C       -10.56650726807622    2.66921338419628   25.24447404903889
H        -9.72448242466511    2.07310460977487   24.92546136762026
C       -10.61056106875386    4.01872461179022   24.91329835589222
C       -11.69047975352337    4.78489729550094   25.32829567780701
H       -11.73064058014694    5.83660716580297   25.07996186622807
C       -11.58653551375962    2.09822301964024   25.98267695357801
H       -11.54261198477794    1.05030996877730   26.23898726743229
C       -12.70955857077332    4.21364565506953   26.07207347617720
H       -13.54255097604031    4.81978633012368   26.39600339723165
C       -12.66044501698099    2.86955031447336   26.39731519727730
H       -13.45549546447735    2.42397561348759   26.97613553152878

