97
CSD_code = HOHQOK | q = 0 | S = 0 | Stoichiometry = C40H46N6NiO4 | MND = 6
Ni        1.56569985975964    3.58643843641953    4.41558077850034
O         1.27310949720759    2.02658407105665    5.37640640366119
N         2.92094143505195    2.58872481677204    3.21209129623403
C         1.89457809843592    0.92536536400818    5.38590953175601
C         1.56940395746284   -0.03620618539283    6.48140107168682
C         0.25008813514001   -0.28466381281379    6.84382163534018
H        -0.54780062728894    0.20870065338462    6.31094324271978
C        -0.04135081381919   -1.16832593842793    7.86686363062962
H        -1.07029277404934   -1.35783735691679    8.13480938235445
C         0.98174716638395   -1.80612785550990    8.54762365595286
H         0.75443772123800   -2.49317578920252    9.34926396715644
C         2.29895218035058   -1.55743453898180    8.19895336595188
H         3.10071304751277   -2.04806337293178    8.73153181764074
C         2.59259708722745   -0.67992850491405    7.17140588441850
H         3.62159614589229   -0.47789925409330    6.91232547377513
C         2.84433183296083    0.51958446496818    4.45821441176840
H         3.25222043793376   -0.47520288853077    4.52397180240208
C         3.26228210690477    1.34501642790553    3.41131283713286
C         4.22401527292038    0.81589658999503    2.36828103798738
C         3.63980995821902   -0.34996754507243    1.56263322940245
H         4.28082268072670   -0.53967468486347    0.70442062389583
H         2.64304207488022   -0.09914649213266    1.20522201724791
H         3.58024800853495   -1.24701479016750    2.17269396316428
C         5.58905948667958    0.43940567967988    2.95594958059362
H         6.29055002489577    0.28385019762185    2.13917601791835
H         5.51647176196477   -0.47088927841177    3.54463425274477
H         5.96225640058288    1.24308475461784    3.58765644822841
N         4.35451314003174    1.98052546025300    1.52779650822915
O         5.08640968658392    2.03395014884491    0.49065732831939
C         3.56790572218851    3.10267571906538    2.02360506840760
C         2.54582671181344    3.49128904917472    0.95056470268846
H         1.87720264839361    4.24065470197216    1.35776825458002
H         1.96204832436395    2.61830999456404    0.66392691908588
H         3.06846397383497    3.87185045192918    0.07709121400431
C         4.52787804837756    4.25624709401346    2.33452948367764
H         3.96945510931126    5.14878618415584    2.58834591706286
H         5.14661343146213    4.43697914429374    1.45852354494516
H         5.16554049630465    3.98685203128865    3.17423508468887
O         1.91573247102597    5.16445526509916    3.51178683128097
N         0.15844116760112    4.56099813089154    5.58099116995619
C         1.55946248232548    6.35461743022879    3.74379322257064
C         2.22553721660340    7.43438374682549    2.95569859955967
C         2.43520086561597    7.28894833487450    1.58848087801787
H         2.09316123541470    6.39394318655762    1.09286768563204
C         3.06198305975002    8.28705216838493    0.86526298563037
H         3.21345093446263    8.16512943186324   -0.19707019997532
C         3.49701665855569    9.43777154547538    1.50060578759020
H         3.99061976516835   10.21557811815593    0.93694060293117
C         3.30080531384081    9.58634604026394    2.86359829683612
H         3.64587066848272   10.47895117792094    3.36507516547271
C         2.66771179392829    8.59285485483874    3.58782616687866
H         2.53128527452924    8.70706660989339    4.65324634305443
C         0.58894798244640    6.75140025974360    4.65516810463041
H         0.31483113320120    7.79156439744484    4.71151668895330
C        -0.07567126166170    5.84164797434891    5.48013149180647
C        -1.18359255979620    6.31935007481654    6.39487932615511
C        -0.69691991357185    7.32328359648012    7.44629839365281
H        -1.47633300356751    7.45124678755541    8.19433409556497
H        -0.47743607623652    8.28401023573179    6.98888722290104
H         0.19941565798951    6.94940262546123    7.93731767000790
C        -2.38378368778280    6.87993529798421    5.62324680305986
H        -3.21712147205816    7.00291896657439    6.31161680846447
H        -2.68014550346609    6.19013312581185    4.83537074656855
H        -2.13971004379809    7.84042416000809    5.17786539256821
N        -1.54220440139472    5.07625539889111    7.03140618009938
O        -2.45034967209913    4.96069270532316    7.91355116031823
C        -0.72908667574910    3.96429201843249    6.55659512397644
C         0.02817278582371    3.38186173815329    7.75546720350841
H         0.54559660909500    2.47515525015023    7.46657130028039
H        -0.68794289000993    3.16856620029534    8.54575380624663
H         0.75583192261262    4.10590611431580    8.11740159827432
C        -1.65771491892877    2.92501076540581    5.91995456438853
H        -1.05743139238045    2.14138295425186    5.47289039309523
H        -2.26109583874747    3.39421470046126    5.14447678970093
H        -2.31507090383442    2.51808743813391    6.68370071044651
N        -0.19316263276081    3.02159268767144    2.84966859230605
C        -1.06789888533238    3.93802687568323    2.45582769773410
H        -0.83229961153616    4.96274458193389    2.71271801779978
C        -2.22338796024540    3.63272443867495    1.75329759357334
H        -2.90475737226157    4.41484247691989    1.45523160325284
C        -2.48093766644581    2.30701705995679    1.44391372085161
H        -3.37159999290872    2.02933239740023    0.89905020237322
C        -1.56723857769632    1.34704067364484    1.84698237460471
H        -1.72414828978097    0.30268860080819    1.62491886305616
C        -0.44052481393828    1.75466045619896    2.54474212246799
H         0.29486840777265    1.03273878056135    2.87578536495321
N         3.31888523697722    4.16195818190927    5.99320487369293
C         4.23042538608129    3.27068307456107    6.36005491961751
H         4.21701356520809    2.32865176558647    5.82914222754949
C         5.15879335360380    3.50042877994729    7.36382528090393
H         5.87893925899837    2.74051521327190    7.62592720615162
C         5.14171087822736    4.72100389270858    8.01818439673561
H         5.84893152210774    4.93728879852919    8.80592339511819
C         4.19668039187672    5.65786328844095    7.63453632551478
H         4.14690855147917    6.62434918091672    8.11239965216082
C         3.30994108906019    5.33115120988908    6.61983676709020
H         2.56230592175834    6.04134561011910    6.29388230644465

