81
CSD_code = HOHQEA | q = 0 | S = 0 | Stoichiometry = C24H38F6N4NiO6S2 | MND = 6
Ni        0.00030969106996    0.00071043786813    0.00021084793063
O         0.66769286363167   -0.32203867911177   -1.68088405957149
N         0.21642694259227   -2.02372252531993    0.48566963458551
C         0.98813122819887   -1.41153237227308   -2.22904942297739
C         1.35906269283757   -1.28847894887529   -3.71698214024473
F         0.24633639946054   -1.29170047967864   -4.48550774906187
F         2.12007067530834   -2.29461483760881   -4.16911518384485
F         2.01028115580306   -0.15767801787015   -4.00261726054522
C         1.00769198197401   -2.67700569217317   -1.70039400878518
H         1.32390285848073   -3.50952758106391   -2.30327909920380
C         0.65106494242214   -2.90776906120206   -0.35915184676779
C         0.75471132705026   -4.29963156962848    0.22228576963700
C        -0.20563938363603   -5.28991612264655   -0.44848241285492
H        -0.25201913436756   -6.19224082109652    0.15731160049868
H        -1.20294155913730   -4.86090194204050   -0.51976175857953
H         0.14136013147976   -5.54502510302797   -1.44538439599356
C         2.18827701563975   -4.84091610309291    0.21661151210841
H         2.23004290111622   -5.71999607027196    0.85605606467447
H         2.49476224877425   -5.11206746029728   -0.78925178228841
H         2.87436859359530   -4.09200720949176    0.60544573333749
N         0.33279240559767   -4.03649893763219    1.57705846715696
O         0.27851263455746   -4.91606781788924    2.49055242028307
C        -0.05519385699383   -2.64386958027436    1.76805713518357
C        -1.55013363004785   -2.60181931270765    2.10323980341142
H        -2.11412748171330   -3.12228106615328    1.33095005986941
H        -1.71094861737145   -3.09363135385816    3.05854748985695
H        -1.88141010121882   -1.57190730736821    2.15538964092016
C         0.79818758395284   -2.05286819043006    2.89216789530118
H         1.81349739686258   -1.89936984570800    2.53402476095633
H         0.38977786819485   -1.10416386105126    3.21542913855318
H         0.80529915894199   -2.75503517078780    3.72284256146659
O         2.12379469830557    0.48630969191187    0.78207806800744
S         2.75609114826011    1.71664831809807    1.29085571733562
C         3.09080531138838    1.38388396242452    3.07162203438127
H         2.13781233588432    1.36130612440873    3.58950826991611
H         3.58185224519819    0.42298565331054    3.17488073519279
H         3.70756375248175    2.17997533674671    3.47186908934850
C         4.52047285921769    1.58269655286953    0.75709302726122
H         4.54396148388757    1.68914997857957   -0.32252023648985
H         5.09454712092895    2.37670456101998    1.21998317088084
H         4.90905725202422    0.60966593522964    1.03490612894607
O        -0.66667797393756    0.32355879231493    1.68144659010793
C        -0.98787601847123    1.41296336504908    2.22939465350763
C        -1.35795905046550    1.28985852002535    3.71752460873183
F        -0.24464806775433    1.29090928475544    4.48518207546252
F        -2.11702316535663    2.29696000476863    4.17074760840767
F        -2.01077725778504    0.15994457404538    4.00309730152058
C        -1.00877994617233    2.67820105858758    1.70025125666030
H        -1.32572999915721    3.51067037420495    2.30281469199972
C        -0.65215799795698    2.90881726182504    0.35897725977398
N        -0.21646895487384    2.02489766509933   -0.48544221488395
O        -2.12299961167441   -0.48617620420365   -0.78199931424293
S        -2.75332084990493   -1.71795895685153   -1.28995268713449
C        -3.08813254592340   -1.38705210712954   -3.07113742252554
H        -2.13499293437388   -1.36336916825047   -3.58877797803451
H        -3.58062613526413   -0.42697780681416   -3.17543229910825
H        -3.70343038525813   -2.18447158492907   -3.47099648768996
C        -4.51797297540946   -1.58631091192784   -0.75673785669758
H        -4.54152520901281   -1.69108960071167    0.32304599747137
H        -5.09040736250732   -2.38218038996607   -1.21841927548899
H        -4.90859024360988   -0.61452741437423   -1.03613268653183
C         0.05535849054450    2.64496880315231   -1.76783374232567
N        -0.33366623575845    4.03737777958157   -1.57729138284898
C        -0.75695374018184    4.30039546765985   -0.22293085538966
C         0.20159069950159    5.29214370085269    0.44822306543149
H         0.24739356136121    6.19423096492121   -0.15796658756020
H         1.19936383414450    4.86440582507611    0.52057188683781
H        -0.14659154274787    5.54732654832415    1.44469471978772
C        -2.19124969191017    4.83980672170412   -0.21850689111244
H        -2.23364396151442    5.71877675220155   -0.85806101591203
H        -2.49890869264669    5.11062950908744    0.78708851548303
H        -2.87603337459268    4.08996005880519   -0.60784299219138
O        -0.28002554879519    4.91669436326340   -2.49110012228613
C         1.55053796713451    2.60379244273588   -2.10207128312636
H         2.11373255852511    3.12467929726107   -1.32948506263789
H         1.71163786554618    3.09557398820550   -3.05734539447963
H         1.88245558051462    1.57406007325703   -2.15388232985301
C        -0.79693573227161    2.05329801650937   -2.89243695750495
H        -1.81189441991991    1.89739025942742   -2.53435191984197
H        -0.38668320035314    1.10576352677222   -3.21678526996883
H        -0.80549287234481    2.75630563384636   -3.72240562159677

