83
CSD_code = HOHQIE | q = 0 | S = 0 | Stoichiometry = C30H36F6N6NiO4 | MND = 6
Ni        4.34531512650161    3.90010970075174    7.54129898201748
O         4.20138932194635    3.99006632631805    9.38668427115458
C         4.83037649920891    3.36665929549891   10.28481043920728
C         4.45234844793295    3.78848201849571   11.71625320410675
F         3.12601669949191    3.79316675323333   11.90567191313857
F         4.96810253520526    2.99717073248388   12.66806278218386
F         4.88525265627035    5.03306459208376   11.98520349051566
C         5.79826604493332    2.40228836551393   10.15327227067458
H         6.23869021026356    1.95665819286626   11.02744843495608
C         6.23846601399987    1.97554187739455    8.88429482571348
N         5.82668062071297    2.41689334314375    7.73603186315579
C         7.29653467720566    0.90083083866680    8.77603901799892
C         6.82934687657317   -0.44373892578438    9.34536867813361
H         7.53435817087211   -1.21401380638975    9.04077637530469
H         5.84572254778095   -0.69851683858221    8.95613689309261
H         6.78346046121209   -0.40756621607811   10.42990660876981
C         8.63646142883537    1.31810851551463    9.39271865251231
H         9.39678673528183    0.60134718130519    9.09074155822062
H         8.57242601437486    1.33678727882833   10.47679127625406
H         8.92655853644326    2.30449584113382    9.03681732566040
N         7.41830404746484    0.81483114577149    7.34002237235932
O         8.19206825904761    0.01314096518381    6.73898553811477
C         6.52687792831635    1.74764693970314    6.65878081210283
C         7.38295311934988    2.72483294638996    5.84823562523211
H         7.99959592410496    2.15696735495844    5.15656474319092
H         8.02583849108720    3.29574168926691    6.51558339098822
H         6.74772235464019    3.40873940938653    5.29970768920118
C         5.58182625865709    0.94228430736878    5.76374651763126
H         6.17936606897880    0.32624465819090    5.09661256878985
H         4.95322688344593    1.60869231195312    5.18681747122616
H         4.95001019785350    0.29975044500904    6.37414675145370
N         2.65864432481275    2.19644794537737    7.49287372612146
C         2.68850005100972    1.18016478131800    8.34716195715618
H         3.48381287285553    1.19330680445793    9.08039822472900
C         1.76648898314839    0.14549304204437    8.33213103137369
H         1.83614680997746   -0.65624553067796    9.05075595701524
C         0.76060064700467    0.16547468009950    7.38000803156244
H         0.02447871813461   -0.62357918139063    7.33567085849333
C         0.72279562958941    1.22342893561821    6.48694840218671
H        -0.04076566124411    1.28314387024659    5.72722155675303
C         1.69032490097162    2.21115952588978    6.58453252336959
H         1.68713256996256    3.04873335388403    5.90006287613100
O         4.48923816984477    3.81015223397608    5.69591295725271
C         3.86025026978125    4.43355859673576    4.79778652661899
C         4.23827999657551    4.01173636118815    3.36634425888702
F         5.56461159452611    4.00708074975307    3.17691965930482
F         3.72250431014635    4.80303099723457    2.41453252871771
F         3.80540304409185    2.76714305308104    3.09740233040842
C         2.89236266860940    5.39793099281817    4.92932481545668
H         2.45193810934868    5.84356164646577    4.05514910707941
C         2.45216476770703    5.82467882754863    6.19830254102335
N         2.86394886099373    5.38332596061957    7.34656517478614
N         6.03198723037932    5.60376966540681    7.58972406721884
C         6.00214905256351    6.62003868991346    6.73541869596555
H         5.20682474743107    6.60690779458825    6.00219463472234
C         6.92418259685906    7.65469091677792    6.75042716513578
H         6.85453696225262    8.45641966755777    6.03179044685472
C         7.93008057600407    7.63469921888025    7.70253993389363
H         8.66622107420516    8.42373681006036    7.74685880013228
C         7.96786803643629    6.57675851877367    8.59561635877547
H         8.73143413397204    6.51703763771683    9.35533784631202
C         7.00031121967912    5.58905249153598    8.49806001735691
H         7.00349607944255    4.75148408121679    9.18253715050382
C         2.16375529664159    6.05257514996103    8.42381674502229
N         1.27233314985378    6.98539614904294    7.74257542413673
C         1.39409859116330    6.89939275664387    6.30655830560036
C         1.86128402315836    8.24396078560166    5.73722350242531
H         1.15627511020186    9.01423858799847    6.04181506262413
H         2.84490921357435    8.49873771814601    6.12645248068912
H         1.90716908734306    8.20778529144183    4.65268581192426
C         0.05416869917377    6.48211719407825    5.68988410852535
H        -0.70615608885465    7.19887843481934    5.99186322227283
H         0.11819957753725    6.46343633128350    4.60581136491996
H        -0.23592618486571    5.49573032973714    6.04578796782546
O         0.49857053829406    7.78709220119110    8.34361430393303
C         1.30767563565919    5.07539362183795    9.23436234589609
H         0.69103889566003    5.64326031841674    9.92603790385465
H         0.66478412562536    4.50449197387085    8.56701463085820
H         1.94290368706591    4.39148056512120    9.78288507087039
C         3.10880884010523    6.85793469813526    9.31885176638610
H         2.51127205566281    7.47398108522505    9.98598257707946
H         3.73740251248322    6.19152488366145    9.89578452544775
H         3.74063072945191    7.50046154549027    8.70845037534837

