57
CSD_code = HOHTAA | q = 0 | S = 0 | Stoichiometry = C20H28O8Os | MND = 9
Os        2.64926523332299    5.04822824569895    1.55888338896333
O         5.04101367410242    2.93687047874599    2.83498510955134
O         3.19887370497894    1.66190989009219    2.82261199327173
O         4.43444394461945    5.50311921976252    4.28528212743289
O         2.33631363618510    5.36678289310983    5.07428920706399
O         1.64223827594665    3.44957860753985    0.72136154695047
O        -0.00081301275163    1.95459249986947    0.47187662647792
O         0.85809323952497    5.68801376471330    2.36236314445028
O        -1.25106633548683    5.52867125719098    3.09488069311046
C         2.88902208538310    3.89725862306410    3.36094098306605
H         1.93452080205402    3.47630900235414    3.68410145797377
C         3.84347340728638    2.84295624022844    2.99556217509393
C         4.00733185862396    0.57181693237396    2.41361020426913
H         4.34388093497898    0.70920014676656    1.38271084233474
H         3.38726093681275   -0.31797869114893    2.49480718122782
H         4.88523755010268    0.48741500584494    3.05810780476076
C         3.34351968554478    4.97496429863291    4.25049450898906
C         2.61750046364158    6.46317717171092    5.92780862584209
H         3.63741979663934    6.38956679443064    6.31139897277689
H         1.89778274525114    6.41787979591818    6.74245135398367
H         2.51003186395400    7.40472169537818    5.38269819142235
C         0.45558844730867    3.11075838707096    0.99828856268089
C         0.94005558000639    1.18459694540817   -0.25557526137261
H         1.24358950191036    1.70406722679831   -1.16821485441818
H         0.43376696123760    0.25488092273262   -0.50430165443388
H         1.82361909287351    0.99007315083413    0.35542642934289
C        -0.47523542535517    3.79599969914879    1.77964785598332
H        -1.44584284558673    3.35516962346608    1.91706056548268
C        -0.21387024390996    5.02037608478506    2.39681582486260
C        -0.99229236865543    6.71493370136118    3.82606238077407
H        -0.11597919689755    6.58355080198172    4.46457912765020
H        -1.88087437676038    6.89280635109250    4.42716252329073
H        -0.82154005387190    7.55778534719544    3.15102325661471
C         3.56727868344867    7.52974982132880    0.71434755467044
C         3.08876677042524    8.91799040891217    1.06095499956347
H         2.30578024869133    9.19883007854455    0.34710038640789
C         4.23403425997831    9.92659940240128    0.93960500006454
H         5.03534561671819    9.68175936054690    1.63238293773333
H         3.87579784173200   10.92818980719786    1.16584256098929
H         4.63957233636772    9.92374272431683   -0.07000837974930
C         2.48636738217412    8.93609306145772    2.46840428926460
H         1.76602059027567    8.12638446546482    2.57683916364173
H         1.98323446669652    9.88303390579876    2.65292717196943
H         3.26215406263753    8.80853257080690    3.21947685828215
C         3.15573950116899    6.91399993523211   -0.48783671854462
H         2.51821273891023    7.46387381203276   -1.16683271627848
C         3.61001601909188    5.65409469966215   -0.84174671267014
H         3.35154847546071    5.24190101347144   -1.80852880570871
C         4.41730995457598    4.89922931402528    0.03601219274311
C         5.00422215310869    3.58614459795662   -0.39483096251863
H         5.80701885454414    3.75455799345980   -1.11403293201644
H         4.24784793629289    2.96193137859931   -0.86661776488556
H         5.41422614327247    3.06487338611567    0.46635169191962
C         4.82862990280260    5.51341741146357    1.24808847324202
H         5.57384598171293    5.02867603029411    1.87025363297290
C         4.45633665950912    6.84649045769858    1.53903196695203
H         4.87846385740490    7.31845224911017    2.41501521651389

