82
CSD_code = HOHVEH | q = 0 | S = 0 | Stoichiometry = C29H47Cl2O2PRu | MND = 5
Ru       16.79502654983621    1.76309377882409    4.24874968678696
Cl       14.97095712853402    1.09176650911571    3.02960442557082
Cl       18.49057078398915    1.52245450975069    5.79312099538884
P        15.41544297282670    2.98412996842332    5.62401500304120
O        20.34368643430597    4.04562472296462   -0.76965875011137
O        18.06153810032125    0.52739232221508    2.80880393116173
C        17.57519207536305    3.12071889919345    3.17242283670201
H        17.46004943719717    4.20050567493327    3.28924058635401
C        18.39496830076180    2.71925233127891    2.08950541048189
C        18.95661130355646    3.64824398089434    1.19377068654949
H        18.74062446401947    4.69282518337495    1.35453165913408
C        19.75284289107275    3.22641920616579    0.14617211209247
C        19.99501477637020    1.85901661455705   -0.02279057651338
H        20.61298341760504    1.54711230738598   -0.84902220301043
C        19.45993419269386    0.92583840207348    0.84424984722227
H        19.66746815501403   -0.11855894667816    0.67331841479941
C        18.66372237787961    1.33921948363709    1.90193572225530
C        20.14451448517566    5.43289411129779   -0.65076105781598
H        20.70245154380448    5.88158056915755   -1.47102341444084
H        19.08616697955039    5.69668717255206   -0.74614950524621
H        20.53016991286917    5.81402013613464    0.30045764349338
C        18.43195622554504   -0.84494604934977    2.92921051504379
H        18.36407140667143   -1.31588970978809    1.93715541596497
C        19.84229068790005   -0.97024124188932    3.50128552301384
H        20.09031206878088   -2.01784118518658    3.64841488630879
H        20.57871027569229   -0.52300354916934    2.83769662477970
H        19.88789486369493   -0.45579004685479    4.46017243785301
C        17.40211252530139   -1.47271957753912    3.86064888748761
H        17.56733705563789   -2.54328214636200    3.94496170232881
H        17.49854118805329   -1.02824420160047    4.85449415320455
H        16.39610696391302   -1.30274836349545    3.47379075942664
C        14.46051489042516    1.75402283255317    6.66418605625907
H        14.27002922535374    2.19619813426125    7.64988612995397
C        13.13189794786395    1.30300347849457    6.05575709423853
H        12.43695129847262    2.14175886864294    5.99175510515751
H        13.30651415201215    0.91925242404439    5.04741441125182
C        12.49471949065062    0.20742391023486    6.90987163700727
H        12.27357353107898    0.60273510757603    7.90528136300191
H        11.55076712820540   -0.09999215809859    6.45552885604363
C        13.42628293417982   -0.99183406011819    7.03884472106949
H        13.61421576213831   -1.41063570705271    6.04770825166217
H        12.95903411983125   -1.76736003374752    7.64917615190439
C        14.74541625673138   -0.55472976443562    7.66482526811893
H        15.42704567973330   -1.40434041690094    7.74361204401503
H        14.56297082675629   -0.17869121191187    8.67509419602931
C        15.38925068503467    0.54482234714712    6.82875566912037
H        15.60709903256785    0.14452377275544    5.82198862581123
H        16.33289770323645    0.85107363929567    7.29113323222667
C        16.33568973716749    3.93847351327695    6.93297211403741
H        16.92473713226111    3.13580833032021    7.40362986529713
C        15.55838022935214    4.65539589815742    8.03506854450567
H        14.81446701312382    4.00088778265791    8.49191759730612
H        15.04149146028782    5.52528066606429    7.63270550141651
C        16.54116478173930    5.13483509102388    9.10334255601995
H        15.99430292668646    5.62983043918072    9.90915489239586
H        17.06577081590719    4.27737976817585    9.53005500017375
C        17.55497009607976    6.09797204407288    8.49334711709624
H        18.26144041321261    6.42788548226360    9.25745316077704
H        17.03253431765985    6.98175865116428    8.11852709524707
C        18.30457309184219    5.42649171069788    7.34684481444054
H        18.88722482810856    4.58828089509013    7.73336572534523
H        18.99949750125555    6.13415038944045    6.89053031480374
C        17.33215505388102    4.90372143984465    6.29237908969180
H        16.79901662472735    5.73951511120005    5.83355451542390
H        17.88877833267711    4.37438250258476    5.51538195179837
C        14.10505700653975    3.98876809291573    4.76605926780612
H        13.45796717813547    3.20604751960297    4.34852039995526
C        13.26858744968471    4.90881107759457    5.65023838783448
H        13.87648825563046    5.75423313842218    5.97404157409791
H        12.91135934533601    4.38209132136353    6.53711023031905
C        12.08989089776278    5.45052357959085    4.84343561079705
H        11.46547508408847    4.62156451871966    4.50324652538317
H        11.47566878917856    6.09698398412339    5.47427232122557
C        12.60068481840319    6.23181291350044    3.63641548852468
H        13.17434759433142    7.09515137965771    3.98242368244589
H        11.75861609841530    6.60482916421281    3.05018708528202
C        13.48904142211909    5.34830923052236    2.76522164005995
H        13.87668600785694    5.92591469788517    1.92374023017427
H        12.89578544285450    4.52606485922837    2.36020512317301
C        14.65014745137731    4.76977160638331    3.57193209290804
H        15.22821828009209    4.09078334144618    2.94022526469141
H        15.30393431391460    5.57592783069494    3.91075204736463

