49
CSD_code = HOHXIM | q = 0 | S = 0 | Stoichiometry = C20H22Cl3NOSTi | MND = 6
Ti        1.46799027757724    3.83658061109142   11.37976923389776
S         2.62061551374666    3.70376785150550   13.77953281503200
Cl        0.19188251829771    5.29167819842951   12.55651453131927
Cl        3.20787247170108    2.60555915286178   10.63843760501344
Cl        0.31477074447570    2.09607218959660   12.00039011706058
N         2.73146533277181    5.42281957239269   11.19607843644740
O         0.81425058513395    4.18432495991478    9.79272911059836
C         0.51540415074683    5.35066535696065    9.31837757145974
C         1.26130150984329    6.46997294510746    9.62761886777674
H         0.99662107827043    7.41683643345206    9.18397101499905
C         2.38348549857998    6.46305006200862   10.49624003907371
C         3.91320561338244    5.45443648136042   12.02883989908155
H         4.45556447722157    6.40469533502114   11.92390686370857
H         4.56514788668259    4.63240491802326   11.70219546616917
C         3.53546863674069    5.25789118572296   13.49816429793199
H         2.84883285602459    6.04336439481877   13.82306423364652
H         4.42384462597720    5.25655587562828   14.12954152726779
C        -0.66725559428182    5.40670658874926    8.43926697998966
C        -0.83802984077952    6.36971994047277    7.44603840843965
H        -0.06959093734894    7.10564491442889    7.26555838433021
C        -1.98015336316016    6.36312902453806    6.66758888427545
H        -2.10537534398946    7.10728184692066    5.89512918052726
C        -2.96153313199171    5.40553159072279    6.87106111731271
H        -3.85240967306425    5.40879174091519    6.26106221728195
C        -2.79662155669653    4.44213426525696    7.85356454610093
H        -3.55883675844182    3.69450001872577    8.01290302363750
C        -1.65462535691427    4.43693266713354    8.63034626327988
H        -1.51563047816299    3.69348535869231    9.40774157403555
C         3.12389284021352    7.75431171309066   10.57385262405574
C         4.10685352843058    8.07490878674035    9.64563972086935
H         4.36055349642702    7.36563187022924    8.87145008728669
C         4.75633214084110    9.29484531333086    9.72327505276225
H         5.52208822785388    9.54042925229243    9.00297316880135
C         4.42334319647809   10.19801911239936   10.71891145419828
H         4.92927286094920   11.15003704306528   10.77444350750678
C         3.43922930979213    9.88165903381123   11.64122846093248
H         3.17542420872868   10.58653486163847   12.41511001018951
C         2.78913959631911    8.66221081714116   11.57310826407615
H         2.01496258101395    8.40492793615652   12.28152905086193
C         3.96818544120428    2.46041853048800   13.76230288727341
H         3.46724304692535    1.52340565658587   13.51474489675467
H         4.65037366320689    2.71297348931396   12.95212342117611
C         4.66960387033521    2.36242995986566   15.10861313057332
H         5.53231643852914    1.70184319335438   14.99756499138144
H         5.04000827796759    3.34635425496911   15.40462800686570
C         3.74009859535735    1.82152878625279   16.18650201395739
H         2.85544350366356    2.44866391592118   16.26382602562115
H         4.24090619289587    1.80271847687910   17.15086989961115
H         3.42366724052592    0.81101451602462   15.94127111555536

