56
CSD_code = HOHYEJ | q = 0 | S = 0 | Stoichiometry = C22H31NOW | MND = 10
W         5.50750972832224    2.40551246403845    2.92395946679052
N         6.95448961976308    3.28823746781071    2.45132212362558
C         3.59199627236579    6.46247830405312    5.08390753366388
H         3.57937836239789    6.14530847363741    6.13304067712595
H         3.11577740989355    7.44715811957678    5.05574390021273
O         7.95202484541262    3.80263041626023    2.05348802137337
C         4.64489128314272    0.22930995749241    2.51315726973488
C         5.62832891418799    0.54961038993813    1.53387192250467
C         6.98699190470528    1.78416268919973    4.63073105932174
C         5.64889571321800    1.72921085063288    5.07511351241205
C         4.76770062707028    4.53021734688504    3.09213995120450
H         4.98307024144098    5.02100391855734    2.12834773012799
C         6.86133615045212   -0.24411651997755    1.22034531517019
H         6.65342999759802   -0.96028632588630    0.42211149123238
H         7.20580562075483   -0.80015482337623    2.09031625335403
H         7.66815987138493    0.40715410899836    0.88824330658428
C         5.59972180197799    5.19177068533746    4.20439079853375
H         6.62103361149316    5.34276926563921    3.84051422019575
C         2.79127894670576    5.50516221621286    4.26107028270814
C         4.93287688248029    2.93811374414401    5.07898106699561
C         3.55029346832356    1.13346192773904    2.36294765878441
C         5.14707340921795    1.66553197181871    0.77963494254587
C         2.87432933315516    2.86402247836119    0.51066840011474
H         3.24170743156310    3.88443175446713    0.40489668540574
H         1.90035839692654    2.89211963409339    0.99323772769676
H         2.73847490266328    2.45184987715428   -0.49140648559542
C         3.83754206665430    1.99479040279430    1.26671571199922
C         3.32155060411551    4.67683559168460    3.36703721388261
C         5.02455327372978    6.56767837682729    4.56554904581936
H         5.65783184560891    7.05611140866473    5.30992414148499
H         5.03020162702534    7.18495673932059    3.66500808611233
C         7.04417413332730    3.92803749204322    5.96332742364912
H         6.91995054487193    3.49712683898240    6.96162054433418
H         7.60666376531112    4.85710055224947    6.06941937192897
C         5.63879958649242    4.23708275473171    5.42661026144537
H         5.09358723367149    4.70980649045092    6.24984931708417
C         4.64357203355993   -1.02590527423949    3.33761788922217
H         3.91740233145693   -0.97621667486805    4.14762361278143
H         5.62600886987699   -1.23481035069787    3.76229904057432
H         4.37221609136910   -1.87307249277358    2.70319803703082
C         5.75332024178429    2.19411860972320   -0.48977001403423
H         5.45177181696472    1.57477158347986   -1.33750918084693
H         6.84074136414245    2.18866301418064   -0.43375247550389
H         5.42637316167963    3.21568325922254   -0.67604199465572
C         7.85049049602554    2.93581110775022    5.11790232178457
H         8.35117059369346    3.45210166274197    4.29596146675969
H         8.65022102996463    2.52147721733977    5.74171908276553
C         2.22835602434573    1.01318905151655    3.06600928764641
H         1.58472534852345    0.30474460976470    2.53858482919344
H         1.71309000968238    1.97079272706346    3.11020952551481
H         2.35229927927562    0.65558253453251    4.08783623949974
H         2.64597764002865    4.08663172744302    2.76327495786559
H         1.71931041701147    5.53429759910546    4.41396132618145
H         5.15749080146792    0.77652223915007    5.27193324326940
H         7.52229118235188    0.83702250565950    4.54264032750000
H         3.88918183937004    2.89249830334877    5.39386652788501

