46
CSD_code = HOHYOS | q = 0 | S = 0 | Stoichiometry = C17H27NZr | MND = 12
Zr       -0.50944867496119    2.14122195301837   12.71244460735589
C         0.36604062183900    1.28999894195924   14.58837632820730
H         1.44905705637247    1.08652275952321   14.56758380384714
H        -0.12273133667934    0.35018449917299   14.89141340189258
H         0.21014878103417    1.99194653361766   15.42378387104927
C        -2.42464302968095    2.48555032687041   13.81331393781169
H        -3.18909124857298    2.88658683068787   13.12620792163718
H        -2.32086540741075    3.20811934675171   14.63651975826469
H        -2.83503570900028    1.56414249219470   14.25436599557085
C        -0.25665779610195    1.14164286700447   10.39574524250925
H         0.37652133853995    1.51887947213411    9.60328897717412
C        -1.63394223271282    1.40513861202803   10.54564460730574
H        -2.23276731178849    2.04934764232604    9.91145333698377
C        -2.13416829362734    0.53929344256114   11.53836751837438
H        -3.17566849244808    0.41085201394786   11.80334860431013
C        -1.06477735573389   -0.24618624400934   12.01668469237347
H        -1.16667054266114   -1.06793925650831   12.71290158837416
C         0.10687617163160    0.12044164582297   11.30731966163248
C         1.46546764507322   -0.56058096665487   11.31858978261251
C         2.53929962269694    0.51137240044163   11.59595318429650
H         3.48462001384056    0.05578770757732   11.88407090964649
H         2.20554737583864    1.15965902657173   12.41465207154651
H         2.70008552980506    1.10764818753279   10.70033360666390
C         1.53219388535835   -1.62448174253245   12.42950195932056
H         1.32892563749859   -1.16345255379090   13.39350154617319
H         2.52211989925467   -2.07452352233266   12.46287433966198
H         0.80197106093749   -2.41036075265768   12.25541709265188
N         1.68481540454442   -1.10577642411365    9.96618345808346
C         0.64865341010297   -2.01134288949787    9.51243202649016
H        -0.32981905542772   -1.59555163650306    9.73550368372619
H         0.72280245445167   -3.01283154334627    9.96289976575782
H         0.74004652981457   -2.12158098667524    8.43136231937002
C         2.98654554542228   -1.68938210012625    9.72263978332233
H         3.77647612591837   -0.98795126345643    9.97487339144821
H         3.06058722073361   -1.90847671153752    8.65696201336025
H         3.15541593095843   -2.62946326978445   10.27037900547333
C         0.18703921883641    4.47074978729937   13.49558835172570
H         0.07904823416524    4.80231092785762   14.52065472923240
C        -0.74308587488392    4.68025639935038   12.45666440222093
H        -1.67915017245576    5.21749722045820   12.54531088045243
C        -0.16553512642965    4.22357569858113   11.25622011251292
H        -0.57762779049668    4.36382689829190   10.26391221685011
C         1.12059507234232    3.72777448892184   11.55108964611527
H         1.87093746952235    3.44850721046349   10.82195177079490
C         1.33828437474658    3.87650322681672   12.93818021002771
H         2.27566381980139    3.71064330372568   13.45683388580378

