87
CSD_code = HOHZUA | q = 0 | S = 0 | Stoichiometry = C67H15MoNO3 | MND = 8
Mo       17.31788435537501    6.81990838761912   10.27774511316875
N        17.66567719148876    7.99167198874265    9.01926404281682
O        17.90036957168273    8.83037785393667    8.23250255854917
O        15.19481727291726    5.62912899659780    8.37156063962580
O        19.26679239593792    4.88872489311467    8.85315420453076
C        15.96053561350565    6.90624478759604   12.17709037341429
C        16.98434759371446    5.93193244211278   12.38825682337864
C        18.23815390029958    6.62383205943205   12.40556062465632
C        17.98713898653543    8.00073352144723   12.17084730842293
C        16.57751167735203    8.17597611127657   12.02420836840313
C        14.52244123645759    6.72072358144918   12.58586789150198
C        16.74934699933583    4.62483328051052   13.10737361623565
C        19.47609264283717    6.10640512873139   13.09109625327576
C        18.93176383333268    9.10888095095354   12.55569730192806
C        15.87156322189674    9.48849976812763   12.24302396096245
C        14.51090046616610    5.71018408361483   13.73016094012444
C        15.49264831266589    4.78753026652867   13.95965709020801
C        17.81272872014567    4.50036017119688   14.19628419298610
C        19.01402515988637    5.15207250382000   14.18943691920647
C        20.03887380070909    7.25260966428094   13.92919955379745
C        19.80119443103148    8.57764721273419   13.69243756646774
C        18.10999759172335   10.16288660087844   13.29375075170038
C        16.75997871288910   10.33019159270909   13.15591807375303
C        14.69119343310915    9.21139205564548   13.17050265242924
C        14.09781825003475    7.98941162807704   13.32267145696364
C        13.77169430224801    6.24393347327846   14.82821566004935
C        15.76602460465113    4.37016190847844   15.29730001606036
C        17.18614274583130    4.19432379264815   15.44211547303489
C        19.62655435391249    5.51784775687773   15.42567490955348
C        20.25339247290233    6.80268920383309   15.26645082517937
C        19.76805716856745    9.49446971727316   14.78577683266968
C        18.73387263394809   10.46418169943318   14.54178284881346
C        15.99192538271184   10.80416224080514   14.26178906477591
C        14.72671991212381   10.11965484764535   14.27099156802902
C        13.51910661242140    7.63795594055325   14.57900211143628
C        13.98912413332941    5.80370799376574   16.12936515290556
C        15.01607230148008    4.83945244182727   16.37069929447161
C        17.79819831476335    4.49449134382061   16.65455913334359
C        19.05468751505992    5.17550173652983   16.64625305561388
C        20.28158047322839    7.69369243679920   16.33423494493406
C        20.03149838140647    9.07900140685419   16.08685776336723
C        18.00626880141136   10.97990548322390   15.60915931982545
C        16.59515945888927   11.15490451314156   15.46506098851840
C        14.11711949670643    9.81250433213354   15.48297321874434
C        13.49530911706811    8.53541483475560   15.64143609536415
C        13.98086379649519    6.73689695170479   17.22752956409311
C        15.65368786252028    5.16597574012039   17.62118988535216
C        17.02280030012485    4.99617633712358   17.76089543058364
C        19.06971592298646    6.10569714222561   17.74688480716249
C        19.67316027735938    7.34478127049109   17.59321513621584
C        19.26555150577100    9.60140853973735   17.19014617395244
C        18.26922384565077   10.53684952096234   16.95509329636318
C        15.97040469031799   10.82193608304433   16.72036789566300
C        14.75122235938245   10.16131632567835   16.72922118198130
C        13.73808467629787    8.08095566812691   16.98736824694568
C        15.01527942660456    6.34414154875534   18.14975892944613
C        17.80885746371703    5.99763395381769   18.43484892987200
C        19.04006466699411    8.52588370241785   18.12145617365503
C        17.00734163405011   10.43473374653118   17.64219020396111
C        14.51987060107684    9.08655185447541   17.65998727704538
C        15.77242376606574    7.31318585123697   18.79858466731463
C        17.19503671765656    7.13672019455251   18.94376884917672
C        17.82196626738302    8.42416616860804   18.78413079814186
C        16.78685942258040    9.39631368289515   18.54015232416253
C        15.52016824344261    8.70968854523635   18.54916471603176
C        13.57269545811790    6.34359235913376   11.44648876533283
H        12.55730747538175    6.24945015377650   11.82586206462442
H        13.87106888532433    5.39247978532328   11.00780623911041
H        13.58807683966217    7.11033650023504   10.67317697256512
C        16.69334583744278    3.40792357945504   12.17878608888507
H        16.51834978892421    2.50263411916019   12.75628128707187
H        17.63486284875883    3.30483329424443   11.63977482315546
H        15.88652500167542    3.52589181701718   11.45564451470941
C        20.51558990493596    5.48354150680665   12.15608423496722
H        21.38653159067688    5.16853314615848   12.72696128621439
H        20.83072802752784    6.20858516081814   11.40676933700267
H        20.09573273556146    4.61430031171210   11.65232854753613
C        19.73996219870269    9.67599740078912   11.38553919082833
H        20.40565399848372   10.46152701907710   11.73694401832551
H        19.07223068320967   10.09556800781140   10.63382338061908
H        20.33713260316272    8.88870950174476   10.92606968244341
C        15.47539470458937   10.20514995311876   10.94936946001386
H        14.96879650056033   11.14011620927585   11.17915149025780
H        14.80524441700769    9.57700458985454   10.36315802707087
H        16.36124702282928   10.42509010773904   10.35432064673408
C        15.98427333429353    6.05330706803467    9.08592464697630
C        18.53446314300401    5.59269894616232    9.38361425323926

