106
CSD_code = HOHZAG | q = 0 | S = 0 | Stoichiometry = C54H47N4Rh | MND = 5
Rh       11.31294383791621   11.48706069961323    8.67011289235960
N        10.83339502470641   11.71540532358068    6.72703937638587
N         9.36116350002692   11.35911785582999    9.13383570464115
N        11.79359579347073   11.06735797091786   10.57778039210358
N        13.26198482202971   11.41345186390651    8.16744112739677
C        11.69676087141640   11.87104052540450    5.68154477359885
C        10.96315756151675   12.05873452013803    4.46230244848565
H        11.40422841920432   12.21433172814596    3.49729857255474
C         9.65085693970071   11.99492843898543    4.78119233039498
H         8.80476132970035   12.07092678231515    4.12667853835851
C         9.57693305712432   11.79265519702574    6.19992442193695
C         8.37988931009565   11.68242221938281    6.90256673307425
C         8.30502069781842   11.47269916768671    8.27726670598974
C         7.07163316277781   11.37474544445003    9.00422563135536
H         6.09441181780595   11.43873255533356    8.56725879540682
C         7.39623507407225   11.19557335238815   10.30456727829763
H         6.73747807048442   11.06568311278252   11.14080152849993
C         8.82936758695698   11.19438915269827   10.37948642696509
C         9.54119870980261   11.00621954174726   11.56144314352444
C        10.93023080717303   10.93477114742674   11.62631251511500
C        11.66319802688775   10.70467321561050   12.83846976369761
H        11.22310545732427   10.57600479606142   13.80784264049249
C        12.97386309234344   10.68519691190400   12.50645600119687
H        13.81830403436484   10.52045700582459   13.14674755369466
C        13.04859161046228   10.92367164592820   11.09339518440699
C        14.24296047485073   10.97178033793728   10.37897881274079
C        14.31562257240634   11.19001266127878    9.00578140733202
C        15.54813348846062   11.25166613246908    8.27330162018703
H        16.52298860727241   11.11624071535526    8.69907781615302
C        15.22615870088132   11.51014694406897    6.98595927369567
H        15.88356145607098   11.61050850989530    6.14453493332595
C        13.79596234363918   11.61666183482289    6.92847558562743
C        13.08676154450188   11.84878634064575    5.75319077318804
C         7.11469081905781   11.80870248980374    6.14750341479449
C         6.76407277381866   13.01948442435625    5.55806356941735
H         7.42506673307866   13.86837618262276    5.65986837530092
C         5.57988854851631   13.14074026856055    4.85778644059459
H         5.31829887441626   14.08862250013482    4.40863219162823
C         4.71651031732222   12.05925892508466    4.72023247105944
C         5.07144013407075   10.85201907455089    5.30669969135806
H         4.41595509238763    9.99793051295498    5.20908418629931
C         6.25303586476637   10.72636224725883    6.01426761961538
H         6.51879923719097    9.77922451293301    6.46138697093349
C         3.43049141065087   12.20931211590263    3.96557887988052
H         2.96024933990496   11.24320000689036    3.79999121775592
H         3.60470817483925   12.68498840855659    3.00182633248607
H         2.73741040617594   12.83752196399108    4.52557105108373
C         8.77234001672046   10.84545441659015   12.81444074055628
C         8.77201441486540    9.63449689475331   13.49681554804756
H         9.33824904738104    8.80343127451643   13.10147223489586
C         8.04512564944496    9.48545463488489   14.66382207356456
H         8.05290396302278    8.53449432401377   15.17791402709778
C         7.30563481840586   10.53949305037051   15.18258416729502
C         7.30974364738272   11.75031550404474   14.49841276063266
H         6.74043763314014   12.58199247396805   14.88944185818801
C         8.02889610229423   11.90295453765872   13.32930061439767
H         8.02505054429679   12.84976750513970   12.80852427453512
C         6.51049625319028   10.38692143868126   16.44363161584223
H         6.68917459639752    9.41779608145207   16.90261803186388
H         5.44527458153216   10.47748581400614   16.23139052114971
H         6.77368263909108   11.16609860714349   17.15759866225287
C        15.50776864638193   10.79542088166671   11.12498654651753
C        16.30585060963898    9.67443035519744   10.92068842442494
H        15.98893105446650    8.92054663337447   10.21444040489859
C        17.48752107220323    9.51890265810596   11.61852984795042
H        18.09622672335881    8.64122641879085   11.45185502822048
C        17.90926171527197   10.47767776378489   12.53321628828932
C        17.11019095564206   11.59480299762026   12.73449154602861
H        17.41992997182436   12.35273622832340   13.44038295020012
C        15.92311607581245   11.75291110341792   12.04294004846956
H        15.31349328939818   12.63013240223481   12.20646150070788
C        19.19323699897058   10.29317749457647   13.28365255524801
H        19.44527782234983   11.18586973263716   13.85060567297294
H        20.00897206298216   10.07223724201224   12.59691235282049
H        19.10778465064043    9.45679365425184   13.97740112958340
C        13.85816809849067   12.05583225943692    4.50861284936727
C        14.65466950185604   13.18605568872091    4.35249761744868
H        14.69813714085846   13.91648092327686    5.14760562992988
C        15.37708467972998   13.37970422109952    3.19158735821375
H        15.98823316891803   14.26463652516652    3.08229606729700
C        15.33154393028510   12.45055506157492    2.15775483520114
C        14.53939960553891   11.32208653171105    2.31867142648480
H        14.49236229735777   10.58556933272784    1.52881990196668
C        13.80925609650652   11.12595973137540    3.47676907144111
H        13.20185525658342   10.23954704175499    3.59039120011685
C        16.12940580629180   12.67123876209956    0.90855103830495
H        15.92948409462253   11.89386257177946    0.17540579985761
H        17.19536733820125   12.66709016604973    1.13538455927381
H        15.88812845440076   13.63762524423974    0.46778345362377
C        11.26347828784185   13.50958605639614    9.16747096115353
H        10.72416781007752   13.52530979007870   10.12677173807409
C        12.64913189871908   14.10003850460793    9.37583094902010
H        13.19408216160886   14.12810970893726    8.42967776523802
H        13.22356939119842   13.50915471431697   10.09094887151226
C        12.52127850099878   15.53140993332774    9.91232253476187
H        12.01364857285382   15.51070295628757   10.87929431336204
H        13.51740764254003   15.95272367463972   10.06446298946175
C        11.72894712225146   16.39641005108173    8.94026239092757
H        11.62096548290668   17.40690777658746    9.34131898790202
H        12.27025045679464   16.46713890982953    7.99430873335148
C        10.35617841058363   15.78394187246974    8.69230005968272
H         9.80094153578589   16.38692051612704    7.97050593875103
H         9.78862720348115   15.77048991661667    9.62539782854260
C        10.49377892543704   14.35112860772186    8.16146570185156
H         9.49542929444097   13.94418939821793    7.99296830126750
H        11.02516074729234   14.38107414337649    7.20764658557677

