87
CSD_code = HOJBAL | q = 0 | S = 0 | Stoichiometry = C42H36BrN5P2Pt | MND = 4
Pt        4.08534639754448    0.70141330728064    1.95632133886751
Br        4.96322103362442    1.13120717765575    4.24133702193062
P         4.14461491102213   -1.54093240794304    2.36660712585927
P         3.94547324865610    2.92095794116987    1.42071317845070
N         0.90959124077118   -0.72825107349632   -3.39807487318294
C         2.14745787826600   -0.76484897521642   -3.86708112338575
H         2.23901859646533   -0.99567152614903   -4.92064999075475
N         3.27823360188451   -0.55561343947508   -3.22147913183992
C         3.08450563108924   -0.26798982503779   -1.93440369738441
C         1.83069993828480   -0.19144883434406   -1.30154072961231
C         0.71604138195558   -0.45090209512231   -2.10583099126937
N        -0.55082933617589   -0.48170796180824   -1.62109414297135
N         2.00833090505861    0.13949252188573    0.02022025222473
C         3.29737146796431    0.25609713155109    0.18398103563521
N         4.00277834882640    0.01494411519778   -0.97073336555449
C         5.42589667470470    0.04145020865523   -1.13121408587432
H         5.79314688351623   -0.94796689351379   -1.41230577268686
H         5.87123325007455    0.34321848261511   -0.17722801995929
H         5.70409247618744    0.75624994327493   -1.90739313132692
C         4.03635887817995   -2.65369169584747    0.92994729962161
C         5.16734127159343   -3.18943727609354    0.32417943666792
H         6.13848066763277   -3.06056060383086    0.78300173956499
C         5.05044131415806   -3.88920916268447   -0.86429090377578
H         5.93293514433849   -4.30176616262442   -1.33181894247952
C         3.81116989111360   -4.04839086074658   -1.46105522335225
H         3.72638679086748   -4.57505858420884   -2.39953293741972
C         2.67946151538729   -3.52721838652529   -0.85426258830652
H         1.71131327327522   -3.64744777433960   -1.31760764261256
C         2.78862856163641   -2.83591582013143    0.33671039920449
H         1.90884795920133   -2.41500955808605    0.80339259285321
C         2.67221386854314   -1.98915026378840    3.31696878813048
C         2.34757352777141   -3.31046163442030    3.61268343938259
H         2.98017261602139   -4.11370865584557    3.25793331568921
C         1.20554496877178   -3.58654998609963    4.34096087731685
H         0.95373909545465   -4.61007430325730    4.57812997886026
C         0.38112770538041   -2.55426632216720    4.76312742131749
H        -0.50771161953946   -2.77801410270761    5.33457100639944
C         0.68586490860754   -1.24161032653957    4.44282511997773
H         0.03243132909831   -0.44123489109189    4.75674717927530
C         1.82916513509596   -0.95906493255761    3.71827264836169
H         2.07296127844348    0.06499498852648    3.43995047752755
C         5.59907086828367   -2.11996270395893    3.28780228060793
C         5.54587636341796   -2.92174081959165    4.41889697677070
H         4.59469291743594   -3.25491928142051    4.80688453676117
C         6.71856641305875   -3.27048210041175    5.06679236289169
H         6.67530441335538   -3.88974234795560    5.95063852606295
C         7.94017049774666   -2.81983289712564    4.59718615398902
H         8.84987907832256   -3.09181283452497    5.11140589437981
C         7.99567762758011   -2.00011303425635    3.48095318333874
H         8.94596031125756   -1.62791184892059    3.12720705729331
C         6.82869749490074   -1.64617399508071    2.83432204087025
H         6.85456350520190   -0.97567587763643    1.98075197975697
C         5.49284730052318    3.81201624032148    1.76057420729188
C         6.66162483500329    3.05703457887537    1.77633779420192
H         6.59890060252024    1.98291867981358    1.62286122696633
C         7.88070635726791    3.66168446559585    2.01264683521829
H         8.78436703143838    3.07076763333136    2.03152847880496
C         7.93638334635181    5.02743468170118    2.23907527786681
H         8.88631486323733    5.50348204455406    2.43189751613571
C         6.77448927223073    5.78186115747187    2.23145737416717
H         6.82008912286235    6.84474004560678    2.41857016285494
C         5.55171588182593    5.17997139713665    1.99342556326376
H         4.64545147556784    5.76838690960097    2.00132536331286
C         2.64913330922311    3.91869863955774    2.20878181049785
C         2.15653410861183    5.07585027295557    1.60979840671338
H         2.52631653670931    5.38239244573187    0.64025194758137
C         1.18605968709118    5.82282444867951    2.25099139333747
H         0.80625181145350    6.72078545915350    1.78528557325005
C         0.70033686518423    5.42280618335096    3.48638535726500
H        -0.05878620102607    6.01040823161381    3.98139513960943
C         1.18621573564208    4.27164623885692    4.08302785034456
H         0.80977497261425    3.95886314541487    5.04554134246122
C         2.15793404814353    3.52023821650557    3.44696617537753
H         2.54723869943594    2.62735285258680    3.91664656381599
C         3.66737641191837    3.20309779020918   -0.35437883695382
C         4.72326082129131    3.41914672188012   -1.23184921896312
H         5.72384070485563    3.56023746638153   -0.84448564853880
C         4.49409070701852    3.44785488375452   -2.59686533681121
H         5.31807105775830    3.61345021811568   -3.27589310951106
C         3.21704895183941    3.25005451735685   -3.09314757579829
H         3.04457221153264    3.25101716355563   -4.15877302640619
C         2.15977862549502    3.04143582971159   -2.22103549634335
H         1.16389488527772    2.88281839001544   -2.60833906538552
C         2.38134886583188    3.01736525768342   -0.85804258166905
H         1.56494918581011    2.83469752208670   -0.17233510244474
H        -0.70809972114436   -0.07987826199066   -0.71376226531977
H        -1.30246447070533   -0.49794520834757   -2.28828946833760

