84
CSD_code = HOJBEO | q = 0 | S = 0 | Stoichiometry = C65H15BrMoO2 | MND = 8
Mo       19.76173470690912   -0.87488923540380   14.45160741873056
Br       18.65928693605634   -2.19399205368762   16.15500382898088
O        19.07816451681267    0.56480489843818   14.83737931204711
O        21.27950861887983   -0.98417731568449   15.06243442942317
C        18.25819687812381   -1.99396108335549   12.76226305718231
C        18.66136709760748   -0.73341663859545   12.29891092006566
C        20.09785189375726   -0.72228841120594   12.21184071674985
C        20.54756935975369   -2.06045630734200   12.49151893293222
C        19.43889541273155   -2.82467438058021   12.88285985110092
C        16.86813434577252   -2.54847263366721   12.54627210306687
C        17.76649303119014    0.26222471544656   11.61095615143996
C        20.85556426955933    0.22340929209769   11.30703241479442
C        21.86542350672418   -2.62169271244255   12.02933629551740
C        19.40645788151351   -4.33440310503227   12.80535107271536
C        16.25890503354450   -1.78681765347646   11.36937622395392
C        16.64954057883811   -0.54497305257043   10.95744371117729
C        18.52210030605278    0.75505901145874   10.38036905879560
C        19.88196589653078    0.73588062456900   10.24650917328890
C        21.79812654609791   -0.61238738510683   10.44204322376948
C        22.24466489944113   -1.86409803443558   10.76031344847444
C        21.56641603038419   -4.00440742063363   11.45930167049121
C        20.47809719948789   -4.75535150368629   11.79998228599312
C        18.14151124990907   -4.71867279042136   12.04111981976322
C        17.02807929597271   -3.93529713466786   11.92746198870029
C        15.74662803453226   -2.71466855363706   10.41399886522674
C        16.54923855187468   -0.18930121300697    9.57957906073047
C        17.69456328752728    0.60650945361863    9.22634370194061
C        20.45742489314715    0.56978826580619    8.95031896099352
C        21.62962405068773   -0.25497618142233    9.06994833753666
C        22.53416740156177   -2.79856471430736    9.72029773783959
C        22.11866614369814   -4.10785887446288   10.14803728816585
C        19.90864035637027   -5.64299847601338   10.83879696267126
C        18.47835711239175   -5.62077730571855   10.98639402297235
C        16.21724134091714   -4.02990049674602   10.75559614609742
C        15.58703406549562   -2.36266517299990    9.07744478499067
C        16.00060018215575   -1.06353801385215    8.64756470262578
C        18.24214009175716    0.49827720283436    7.95271179519021
C        19.66422517580186    0.47999148583244    7.81094686398135
C        21.96076946953217   -1.13582258342741    8.04533102668479
C        22.42581404048023   -2.44528684583428    8.37972654634927
C        21.60809747486567   -5.00888748185389    9.21992038019387
C        20.47134707782935   -5.79920372079309    9.57598085606886
C        17.66845445210596   -5.76156841592715    9.86481423131727
C        16.50379044129390   -4.94213585221521    9.74593315564908
C        15.90321692092883   -3.30277455398547    8.03200289396338
C        16.57926367642607   -1.18678795478193    7.33354490354931
C        17.68162636667128   -0.41785129058565    6.99147728714858
C        19.99830647018756   -0.44587127876355    6.75825808218982
C        21.12835113894543   -1.24095021845818    6.87359266979530
C        21.88397193340138   -3.37455292248321    7.42039917456445
C        21.48097853917638   -4.63555253548175    7.83386741322296
C        19.63050131954119   -5.92524660620271    8.41244440998119
C        18.25127526516379   -5.90764829956677    8.55482986588708
C        16.35343818352531   -4.57236290789319    8.36110821232463
C        16.52175841134383   -2.57502026167137    6.95349551008522
C        18.77042149362687   -1.00590518714459    6.25431298615840
C        21.07658593137544   -2.62849209863660    6.48969745777627
C        20.25380696134918   -5.20083019257399    7.33441698027716
C        17.43939710597275   -5.16619960606823    7.62407750905405
C        17.57228668367603   -3.14488382956531    6.24318540350768
C        18.71716652636399   -2.34581525265688    5.88682845819715
C        19.89148047480747   -3.17204432469705    6.00668351621738
C        19.47235375019943   -4.48174668476806    6.43712260747991
C        18.03908430007093   -4.46474004308693    6.58410771398369
C        15.96022470848302   -2.54439480261990   13.77961004589045
H        14.96258769030950   -2.87362770014107   13.49798237973302
H        15.89388081929581   -1.54008429684005   14.19566924019229
H        16.34914975343354   -3.21281236334045   14.54455918440051
C        17.24606096128068    1.39430791265213   12.49942975912439
H        16.65469950401612    2.08740206983699   11.90494959623031
H        18.07821539498225    1.93041751338305   12.95280448024136
H        16.62267301809386    0.99009316070122   13.29525329717718
C        21.56184952254035    1.33929555363272   12.08282526637248
H        22.09440054231891    1.99711646350194   11.39906949669422
H        22.27208576843908    0.90765791638366   12.78883436854049
H        20.82979680501629    1.92270157192517   12.64217922384992
C        22.97437702464374   -2.63592097878370   13.08378092235974
H        23.89681850002033   -3.00841191137385   12.64348580251293
H        22.69365252910604   -3.28085552898283   13.91476966581313
H        23.14114131153667   -1.63129132791469   13.46900175399803
C        19.54132708361223   -5.06431329471148   14.14493264877240
H        19.59890697004377   -6.13635104174150   13.97068972546250
H        18.68535469119766   -4.85642804588190   14.78309870741998
H        20.44564681320096   -4.74338701650278   14.65994884347128

