126
CSD_code = HOJDAL | q = 0 | S = 0 | Stoichiometry = C36H81Cl2N3P3Ta | MND = 5
Ta        2.04659019798099    4.98579226597420    0.30361168628147
Cl        3.40656272004769    5.38571356137928   -1.64301909857990
Cl        0.63523816333813    4.53388741571920    2.20087215498418
P         1.83114691407764    8.29769798616327    1.18174767918968
P         4.62130927311526    3.15635257074972    1.63714495771893
P        -0.22647180219984    3.55070047797018   -1.82059451987709
N         1.86362619085341    6.86525048169513    0.57689534236303
N         3.50433789851756    4.14674291963804    1.19918335784517
N         0.86261127425323    3.95342606977083   -0.78740425764121
C         3.15426721539405    8.46568141274999    2.57714683683154
C         3.08032311416015    7.21532725004877    3.45440758653052
H         3.98017065188834    7.14943231035527    4.06703052567393
H         3.01983104895174    6.32689404264583    2.82629506504148
H         2.23179320442329    7.21693653054674    4.12748114780780
C         4.52038675033595    8.42930092215670    1.89007314325811
H         5.30147840353911    8.24679677135888    2.62872535634129
H         4.75301307414727    9.36986480298253    1.39967498196320
H         4.54506572593510    7.62101216738045    1.16008603635040
C         3.05335610267423    9.71486733586070    3.44837437208142
H         3.91098522716492    9.74415586599778    4.12181882863060
H         2.15680517845643    9.70665891002954    4.06151622134120
H         3.06140219454803   10.62540584788165    2.85758458139308
C         2.23305664206529    9.55683809567453   -0.22744709193167
C         1.01178670479758    9.61728947892164   -1.14579339225237
H         1.27046226163135   10.14978626928902   -2.06178087646163
H         0.17653021765465   10.14183284469532   -0.69121328172074
H         0.70969243984795    8.60918720607194   -1.41582373948299
C         2.59270792066053   10.97117995686280    0.21674508305378
H         2.69223626172988   11.60199720612929   -0.66759397409120
H         3.54193620856586   11.00064265101614    0.74428650198642
H         1.82540767672104   11.40491663359562    0.85135906521972
C         3.36700531252642    8.96538165163325   -1.06964231792333
H         3.37542166262033    9.43336086079456   -2.05361088573202
H         3.21621096049176    7.89626546371577   -1.21065942659845
H         4.34512473192515    9.12246505426263   -0.62958595908857
C         0.08432903347805    8.66198094104679    1.91921424296640
C        -0.05075438650520    7.92187300116128    3.25108389257510
H        -1.09602678535382    7.93408002182811    3.56192315701571
H         0.52446926766732    8.39271074766507    4.04255883187474
H         0.24655748891349    6.88087571532012    3.13902474002509
C        -0.93805926582122    8.01875082893985    0.98206507741023
H        -1.91845513187443    8.01275150436851    1.45802831217824
H        -0.64345280538507    6.98693474127156    0.79619221257935
H        -1.02988380083644    8.53569420779622    0.03361437839512
C        -0.23813086822258   10.13729394924173    2.13951812895555
H        -1.19982202370022   10.21496109396383    2.64817718019994
H        -0.31898986382501   10.68484215434260    1.20489360470764
H         0.50856215244049   10.62043649732153    2.76315937076804
C         4.75057260483590    1.69157093721266    0.38639604707881
C         3.33273449664024    1.22836447181846    0.04800839710245
H         3.34403426970337    0.69873453548597   -0.90363052227790
H         2.67314570186985    2.09183613004842   -0.04981784193010
H         2.92179121471603    0.55389627855549    0.79148849807134
C         5.33987366962145    2.26775657710913   -0.90251649530372
H         5.20243264359602    1.55936278577383   -1.71984724460585
H         6.40599982472200    2.45202837606717   -0.81287742774932
H         4.83347368668120    3.19349978381515   -1.17295632429748
C         5.58618355734012    0.49734606674958    0.84047911566859
H         5.66791500904532   -0.20835300161578    0.01283031622722
H         5.12327901589905   -0.02666209334379    1.67241579642268
H         6.59056411818779    0.78978347777971    1.13006872799063
C         6.30145653262492    4.10769999907223    1.67176206330879
C         7.55889588636203    3.24780948755765    1.74826818588706
H         8.42398226487302    3.90112417024232    1.86948647452479
H         7.71217758415979    2.67135022329095    0.84053124329943
H         7.53219399143138    2.56794092105706    2.59519465531582
C         6.26025411808538    5.03918754332489    2.88312360908228
H         7.08103705517491    5.75520845011980    2.82344518682254
H         6.36876203258570    4.49909924899200    3.81938663687461
H         5.32427773406399    5.59062979733814    2.88114657043566
C         6.34688422772054    5.00919082829563    0.43496324505507
H         7.02230480876535    5.84612366075154    0.61026575126340
H         5.35568972239256    5.41052553487661    0.22705422469816
H         6.69488686990019    4.49093125212127   -0.45122818056265
C         4.19565833569075    2.47335747687011    3.38743521179112
C         3.05216300374228    1.47102215079737    3.22312863975105
H         2.61693696002982    1.25576461770757    4.19915879080276
H         3.38944947657677    0.52820869724120    2.80281522239465
H         2.26953990922491    1.90098662369213    2.60011430626771
C         3.61965474506296    3.62199315834655    4.21714332986864
H         3.20029068611046    3.22336543417629    5.14068511159199
H         2.81416174899150    4.10226089553197    3.66537681947951
H         4.35841309328763    4.36711974910360    4.48633124360918
C         5.35098582659512    1.80715669626299    4.12843745979677
H         4.96916416400505    1.35492572543002    5.04447452848615
H         6.11681180014704    2.52342278854648    4.41302989442763
H         5.81208000114495    1.02283982813811    3.53529605451284
C         0.41537254328001    2.06376239756119   -2.87266650356557
C        -0.36733088488764    1.74602829696058   -4.14377313186537
H        -0.27708204389563    2.53141714248219   -4.88820288596927
H        -1.42110151049809    1.58065755192133   -3.93737175383548
H         0.03544264747227    0.83217040737799   -4.58288663705607
C         0.38518439033742    0.83067496961986   -1.96791037157407
H         0.98423378551836    0.03348037602921   -2.40962329609696
H        -0.62352941831916    0.44557165622948   -1.84755187591167
H         0.80142449565563    1.07047352939367   -0.99378862594129
C         1.88279877352849    2.34604652585219   -3.20993393309780
H         2.42037348432392    1.40975076133656   -3.35645479700612
H         2.35929035587188    2.88997420569229   -2.39584284372598
H         1.99483083663565    2.92868265648203   -4.11762370255034
C        -1.82183206653132    3.03356536417944   -0.86587373020377
C        -1.39471860632861    2.19139925400108    0.33921763135374
H        -2.19959905633862    2.17397566405161    1.07335768984369
H        -0.52459893364445    2.64070790331608    0.81489292714588
H        -1.16830767639197    1.16372307710034    0.07879720075876
C        -2.87978807744288    2.29171988789545   -1.67643586710734
H        -3.76046683932830    2.14198002787313   -1.05060338962358
H        -2.53403775022384    1.31125973840313   -1.99209928755801
H        -3.18525703359137    2.85173710703739   -2.55505350460534
C        -2.42806956501424    4.31482765718535   -0.29176704005624
H        -3.19649687980791    4.06058582385510    0.43859714413863
H        -2.89668496999310    4.92640527117690   -1.05744831107906
H        -1.65754445744921    4.88613266748726    0.22366324926878
C        -0.61749589147184    5.01753594897220   -3.01760969835812
C        -1.90119905619676    4.88084456846215   -3.83255661438313
H        -1.94584954602499    5.69433734231711   -4.55797210553795
H        -2.78600173441083    4.95371412950974   -3.20552019310264
H        -1.93706616188376    3.94410040144292   -4.37960763540025
C         0.57692440003346    5.16566442562590   -3.96227600711922
H         0.51497974642838    6.12334737570727   -4.48033976031284
H         0.59739361292196    4.39063861012569   -4.72160575246029
H         1.50976051332405    5.15137193026284   -3.40083645902569
C        -0.66694570729064    6.30655611955223   -2.19792575828158
H        -0.64295235642146    7.16191864783754   -2.87428701148013
H         0.20503152824999    6.36000658685816   -1.54463912540884
H        -1.56324801556898    6.39071801250482   -1.59375037454356

