77
CSD_code = HOJDOZ | q = 0 | S = 0 | Stoichiometry = C36H34Cl2N2O2Pt | MND = 4
Pt        5.56510232024420    3.05554057483436    9.13225532577410
Cl        6.29284555992497    5.14473286616888    9.49747359076900
Cl        4.93121322525039    3.68932320550934    7.08367970802489
N         6.09436084663089    2.37539669257827   10.92979202947778
C         6.66863863450418    3.08585824186605   11.89765298019091
H         6.85449924285916    4.12718688175861   11.66390782512393
C         7.01387975959694    2.55281653159629   13.12985889452274
C         7.65557654397311    3.39426939021987   14.18187282330958
H         7.08201861454755    3.34703506132772   15.10614829829005
H         7.72347919501973    4.42907339259563   13.85986370542432
H         8.65869049419557    3.02722480662178   14.39557583504918
C         6.74170080399591    1.20091723597982   13.34590634745213
H         6.99429465282819    0.74095736990600   14.28937891567633
C         6.14675460199001    0.45927351040783   12.34660143452458
H         5.93190666931782   -0.58488080674773   12.50391489341575
C         5.82349612219062    1.06629692798525   11.13356160970641
C         5.18021158011419    0.38975548841406   10.01539849629393
C         4.79644842083619   -0.94982271240290   10.01208149416929
H         4.98349761627763   -1.56855478239870   10.87442059208385
C         4.17075292434042   -1.48255906617173    8.90140010398767
H         3.86656940359046   -2.51832984463337    8.89162408431119
C         3.93864833992122   -0.66974364336800    7.79458127477016
C         4.35717835648560    0.65239036264119    7.86632735782796
H         4.20362479040380    1.32558150682401    7.03119264570534
N         4.95482297984960    1.17088788062209    8.93284379671607
C         3.21169229872936   -1.13049784779845    6.57601188884059
H         3.25492578718356   -2.21585764656267    6.47970616681783
H         3.67207117155714   -0.67892558369214    5.69634807094056
C         1.73923889364910   -0.66972654795103    6.63556987922521
H         1.17251602543129   -1.31345381447736    7.30972917197606
H         1.71268143698715    0.35151748396778    7.02258480242743
C         1.13536615192020   -0.67194713504425    5.26396447056838
C         0.19718490874782   -1.61072064877128    4.83119872551277
H        -0.10904860758550   -2.35717542556900    5.54499051676741
C        -0.34128373022292   -1.60546336874585    3.55305384329191
C        -1.37604519461509   -2.62435314788498    3.09604435866720
C        -0.83530420152645   -3.38153629197893    1.87510044282963
H        -1.55517425097487   -4.12960707093580    1.54962953132305
H         0.09580644402365   -3.88435416776047    2.12765484628932
H        -0.64457446173245   -2.70972590244390    1.04363619136280
C        -1.71541648262847   -3.65315874319241    4.17813924646894
H        -2.45245691926635   -4.35391501018859    3.79123016201752
H        -2.13940540032874   -3.17256383006558    5.05644192848731
H        -0.83405241819129   -4.21968567877643    4.46926648559709
C        -2.66772318388029   -1.88513845452300    2.71985746575834
H        -3.04631457868320   -1.33306549448204    3.57733264612668
H        -3.42802857583090   -2.59562786064007    2.40223749243065
H        -2.49883042420003   -1.18114554664932    1.91042154201083
C         0.07235469160293   -0.62384571931195    2.64250245452597
H        -0.31546270647448   -0.57587594068307    1.63951550734021
C         0.99877813244829    0.29822294584291    3.05776295955886
C         1.52277343792531    0.27830172983974    4.34663703188274
O         1.55251151244278    1.32953125969366    2.36106265764631
O         2.41865351410094    1.29328971751092    4.50042895930224
C         2.45438810786374    1.99545169036221    3.25202357324376
C         3.87427185330810    1.97896590244190    2.70540636798441
C         4.92885607219241    2.29266907782435    3.55303118728973
H         4.73874708410944    2.54209617572207    4.58530231129823
C         6.22248679760591    2.29643212150316    3.06430781698255
H         7.03838451659238    2.54361979050623    3.72652740319202
C         6.46871704646727    1.99485391547029    1.73500338457689
H         7.48017489645020    2.00292356464165    1.35539986769824
C         5.41538429006121    1.68685828587670    0.89167123340158
H         5.60141511021540    1.45290821260004   -0.14654046506986
C         4.11829030137513    1.67816723950167    1.37415719072122
H         3.29180702583696    1.43618103510453    0.72323697199722
C         2.03476340029732    3.44527430177426    3.43402162524528
C         2.24462340665806    4.09449792030377    4.64147449979557
H         2.68850206896984    3.56793308921708    5.47115669732532
C         1.89186525512120    5.42579804292898    4.77388193842272
H         2.06532830112274    5.92794305967063    5.71334046310783
C         1.32969422994264    6.10880980914971    3.70936044790009
H         1.05640764601472    7.14856645022368    3.81565767566841
C         1.11993289722290    5.45778266677350    2.50514211461965
H         0.68191273538217    5.98673341849476    1.67120255364191
C         1.47503560765580    4.12883255058576    2.36385569656571
H         1.31666638004507    3.61197834842211    1.42950593578682

