117
CSD_code = HOJDIV | q = 1 | S = 0 | Stoichiometry = C57H53AgN2P3S(1+) | MND = 4
C         0.36411840644222    7.80773360866507   20.01003791918531
C         2.40951583796485    8.73346698289733   19.04144331083392
H         2.50177660601155    8.03782577241444   18.19857198080793
H         3.03000954908565    8.35967933259593   19.85764537888083
H         2.76391043941436    9.71320039582491   18.73640747461732
C        -1.70444987391293    7.02150622020028   21.05381887923645
H        -1.57213052379230    6.04234970508981   20.59002103193359
H        -2.75388590312881    7.29731616796973   21.00174901675882
H        -1.39478106602082    6.94939320849244   22.09977771010110
C        -1.36002483089551    7.36194504814392   15.91015203888566
C        -0.43253019232608    8.30493314575127   16.33932759157750
H         0.23030916368316    8.05089653326220   17.15659709837213
C        -0.34769420683197    9.53805440619131   15.72137857344163
H         0.37799502200106   10.26478676421642   16.05634599084702
C        -1.18638964855867    9.83208193136543   14.65893208018188
H        -1.12194042425297   10.79223468224638   14.17023010213153
C        -2.10320715970381    8.89083540146631   14.21736095461685
H        -2.75140663729651    9.11974617718468   13.38472826121045
C        -2.19418601169538    7.65755348289654   14.83717286120907
H        -2.90792203298390    6.92560423976450   14.48741451565025
C        -2.91472386430195    5.94849434951719   17.83019062220204
C        -3.64132031652360    7.12690993509679   17.95037507142854
H        -3.35372847693658    8.00249518256058   17.38486426793137
C        -4.74170756954575    7.17211473968958   18.79017529742653
H        -5.31262229491442    8.08529684564018   18.87386558938132
C        -5.11451854217198    6.05373414142164   19.51771188261890
H        -5.97439560398474    6.09614154701712   20.16863906923795
C        -4.38252940052058    4.88038794961380   19.41131571307810
H        -4.66400535547587    4.00823906809606   19.98176854064005
C        -3.28477414041565    4.83015670283931   18.57577972775128
H        -2.70321599322945    3.91932887795426   18.49303687982464
C        -1.97018633577109    4.62523250317407   15.51611563663188
C        -3.30824038861970    4.42754804203600   15.18943602331902
H        -4.08348823128989    4.94955500576699   15.73348631486953
C        -3.64376118642338    3.54955226800347   14.17384672776766
H        -4.68251399311207    3.39730276435620   13.92130764576332
C        -2.65538965270341    2.86744749420128   13.48182103773703
H        -2.92626045898135    2.18601085333161   12.68964765804172
C        -1.32215503095797    3.05227943451542   13.81227042974451
H        -0.54691203510620    2.51359563976838   13.28787407445605
C        -0.98330430413106    3.92466535470422   14.82882263455656
H         0.05480235376722    4.05459424755932   15.11467722390095
C        -0.98876711300004    2.49471386958468   20.26858311433009
C        -0.94950215665672    3.36776207273152   21.35484281121684
H        -0.10375803049616    4.03407057581823   21.46803730523719
C        -1.97306978146202    3.36862569064487   22.28196844638164
H        -1.93531256117080    4.04048001164662   23.12653826507800
C        -3.04697070463840    2.50486987722304   22.12911717183599
H        -3.84678805499686    2.50460353914591   22.85428123168781
C        -3.09136326315790    1.64022711379403   21.04834347699541
H        -3.92475496238637    0.96326878493472   20.93053686469730
C        -2.06849426489615    1.63312157472700   20.11496561502332
H        -2.10965928634899    0.95411386508730   19.27487312191342
C         0.11425522127753    1.18374999414043   17.99419413659148
C        -0.84973360071233    1.31000930532665   16.99625489042986
H        -1.40633684557648    2.23543585466984   16.90959627941673
C        -1.09152394400151    0.26822451450082   16.12251808142468
H        -1.84354722870391    0.37465017292507   15.35484184958774
C        -0.36282754992068   -0.90609812585295   16.23230889050811
H        -0.54660429887379   -1.72124594045837   15.54889874244513
C         0.60460629912568   -1.03193436421542   17.21587089682493
H         1.17451764983335   -1.94540541102762   17.29900096824231
C         0.84840756076408    0.00838702455792   18.09627058819657
H         1.60815515556180   -0.09402834621545   18.85773512371471
C         1.80742963566588    2.12884860809407   20.08171561024086
C         1.68484214469745    1.32275807979473   21.20984269331662
H         0.71066944886858    0.97470357812768   21.52422879741166
C         2.81386694052983    0.97244571826804   21.92748981507369
H         2.71799989919594    0.34862487748269   22.80361412559210
C         4.06425785518186    1.41847328182551   21.52808696642607
H         4.94003090638663    1.14390577126006   22.09623306810079
C         4.18989087132598    2.21801715577159   20.40369119555330
H         5.16120905475378    2.57027187416408   20.08882775301499
C         3.06432519331782    2.57240125029240   19.68429832568909
H         3.15523040251333    3.20369793638806   18.80663341228863
C         2.79748186223171    3.93328031390248   15.20372189417194
C         2.41052042818079    2.66682157678124   15.63253334479526
H         2.05247539906315    2.53608675383724   16.64873559609339
C         2.46479490363269    1.58614363224231   14.77351536534268
H         2.15432947388856    0.61111052698101   15.11828995521003
C         2.90975059205106    1.76400401852433   13.47329779330903
H         2.95155622812091    0.92419972304378   12.79647478815471
C         3.29827498910573    3.02155375984786   13.03989021316138
H         3.64526123198329    3.16001148692818   12.02675355007852
C         3.24354113386461    4.10635252477577   13.89707851629704
H         3.53607009248830    5.08571276750359   13.54503904124436
C         4.37657266465976    5.29799465996557   17.11341690325756
C         4.53297141393055    5.55056133432420   18.47288052283444
H         3.66082277842440    5.72240507308075   19.09201471762077
C         5.79727618706799    5.56883667603657   19.03415820327787
H         5.91288434086656    5.76260199794218   20.09019031338982
C         6.90867996254252    5.33225823357298   18.24225423149970
H         7.89563693347152    5.34277791486205   18.67941036957878
C         6.75525182126014    5.07682485594010   16.88798441577890
H         7.62236686163802    4.88966639897114   16.27253518916925
C         5.49486978855032    5.05763657537297   16.32040578206718
H         5.37746572979705    4.85275177944902   15.26597235431472
C         2.68537916362806    6.76296202237554   15.35817684536888
C         3.58002380158945    7.81149893395977   15.54358463595935
H         4.34902704662359    7.73980929518715   16.30081386479748
C         3.49509846354508    8.94077176631939   14.74750659159743
H         4.19827199797957    9.74807358066471   14.88937099870556
C         2.52082856650645    9.03346725418960   13.76790782624392
H         2.46420995609124    9.91181794889932   13.14328082217128
C         1.61824996890513    7.99644964389571   13.58891496394505
H         0.85480274195887    8.06615874002460   12.82861226712986
C         1.69092113952088    6.87216343689071   14.38718801183876
H         0.98066527583347    6.06613092329478   14.25438357549872
N         1.03736262211781    8.83876189456391   19.47427193151697
H         0.55464624695795    9.70968443079380   19.31306926970229
N        -0.92193605773217    8.00317938468007   20.34316733813812
H        -1.30495568909537    8.93428821084606   20.27298579853664
S         1.13235706300056    6.35181000952805   20.31611754160263
Ag        0.69954517955325    4.97924451554968   18.05917922484184
P        -1.41421266656139    5.77813503994315   16.81332970002148
P         0.37911148372433    2.63010069464504   19.07311702136715
P         2.68723259521413    5.28582375118462   16.42518823711793

