80
CSD_code = HOJKOG | q = 0 | S = 0 | Stoichiometry = C28H45Cl2NOP2Ru | MND = 6
Ru       -0.48317343674260    0.19471050934262    2.09733743600541
Cl       -1.12103396536138    1.60491844991535    3.92396879177077
Cl       -2.63286008394571   -0.83278690761536    2.31915987493861
P         1.44708717561389    1.58024388413463    1.94851019788028
P        -0.03061753145732   -1.57867435123931    3.61696848942342
O         0.27243917906823   -1.63998591851855   -0.12440864111665
N        -1.52334340661544    1.63181150761587    1.04863385345428
C        -0.04003791800401   -0.89365191141030    0.69634354742843
C        -2.16040495531253    1.82863278577158   -0.04328667800728
C        -3.07842448893017    2.96866037266786   -0.20966988150761
C        -2.92247844147717    4.14070856276640    0.53261536891149
C        -3.79732351508732    5.19694725955023    0.36742658479587
C        -4.84715434920253    5.09895706875316   -0.53069024644058
C        -5.01533105967786    3.93794915858770   -1.26768526925390
C        -4.13687584398735    2.88276042124360   -1.11524491801410
C        -1.99956817356620    0.93949826922591   -1.21011001482808
C        -2.28671261415733   -0.41810597681528   -1.11254885451778
C        -2.14826187631063   -1.23436957242095   -2.22164807567115
C        -1.71990599865151   -0.70764267578939   -3.42752263481393
C        -1.44639333069346    0.64723359205158   -3.53254351020293
C        -1.59686789226753    1.47139579764951   -2.43434494343668
C         0.97643403381901    3.34972859602688    2.06739848188711
C         2.37193907171523    1.62098169769493    0.32456951610074
C         3.18773442323533    0.35565360529026    0.08330258418512
C         1.40142383676954    1.83221404181376   -0.83130497372901
C         2.83816870218303    1.50485846643412    3.20252625642912
C         2.28377041776073    1.89117758436928    4.57217475937041
C         4.07276676444207    2.34569703148673    2.88328089347433
C        -0.50714107421335   -3.18156363234208    2.86652667715290
C         1.73085828640826   -1.95197062404344    4.13347756244484
C         1.93967819483323   -3.15668279961483    5.04577714870776
C         2.55766975062720   -2.12486955431816    2.86101935675406
C        -1.04369861101899   -1.48922353449716    5.18667956036474
C        -1.56490339542463   -2.83351148615818    5.68831126622474
C        -0.32564045828807   -0.71865797546068    6.29271275475842
H        -1.79069113005998    2.28644913489370    1.79586991799918
H        -2.10492189301456    4.24128081177025    1.23278983117737
H        -3.66055197071993    6.09986470227183    0.94385571199813
H        -5.53248335473489    5.92406021616220   -0.65372333078819
H        -5.83619646874434    3.85410128904833   -1.96403734921681
H        -4.27803710531785    1.97503694325617   -1.68253768754360
H        -2.64200823463278   -0.82298369893909   -0.17574805592290
H        -2.37407846067140   -2.28671083178043   -2.13892339505166
H        -1.60519574916035   -1.34886838565975   -4.28899362143168
H        -1.11984209218270    1.06288029386121   -4.47453310936954
H        -1.38745960628709    2.52884034220771   -2.51450901666725
H         1.86078952234343    3.98491805771441    2.04352351881447
H         0.32722772587651    3.60754555648023    1.23201528811152
H         0.43216247310804    3.49506443823981    2.99982207777281
H         3.04654378248173    2.48414833105313    0.38086302648967
H         2.52873663600485   -0.49673187069376   -0.05884808905076
H         3.78613951428823    0.46982151196813   -0.81973154842637
H         3.85992921441076    0.14136189102589    0.91047084934529
H         0.88110104527646    2.78412702506060   -0.75274571991095
H         1.93935409739538    1.81995559041645   -1.77798480059638
H         0.66170793533806    1.03335379436342   -0.84985933181168
H         3.13820303630805    0.45274662394534    3.23288541652903
H         2.93619829892059    1.53289260452987    5.36694855734757
H         2.20086089446456    2.97181003835076    4.66310570624077
H         1.29231366475861    1.46616062209285    4.71407839823992
H         4.77056587546412    2.26500580251307    3.71592855623818
H         4.58469313924615    2.00627056744123    1.98733876755249
H         3.82345386163355    3.39766448957899    2.76719125571963
H        -1.56034679003454   -3.14178676848613    2.59453905796661
H         0.07999547880768   -3.32661238383644    1.96050364156148
H        -0.33024978272462   -4.00291450630346    3.55682230627418
H         2.06800444498571   -1.05163221461722    4.66048752357268
H         1.40369844548302   -3.06081902729537    5.98503676903472
H         1.63004999561338   -4.07825261301266    4.55907346607153
H         3.00142137309793   -3.24596440585590    5.27613056513354
H         2.39692887684926   -3.11192028327629    2.43291812147582
H         2.26657731368365   -1.37923207952841    2.11829329996224
H         3.62178723114990   -2.02278899883020    3.07097990548720
H        -1.91644002899749   -0.89407769221803    4.88713972458557
H        -2.15071270010130   -2.66340550545360    6.59086073919895
H        -2.21710523992307   -3.29656572544898    4.95283369640740
H        -0.76146227770907   -3.52268686968586    5.93653718511309
H         0.55255928241761   -1.24351147027587    6.66049087545166
H        -0.02519592867404    0.26400878894230    5.93825035141573
H        -1.00804176152971   -0.57194587828579    7.12887862642821

