23
CSD_code = HOJKIB | q = 0 | S = 0 | Stoichiometry = C6H8Cl4N2O2Pt | MND = 6
Pt        6.55703010073878    9.61615653668308    6.02126496651745
C         9.08394838744903    8.89365184619349    7.22939705827256
H         9.17624041815046    8.34367840416781    6.30126357112806
C        10.08546584673116    8.85806290644694    8.18084421656663
H        10.98293337209404    8.28133190230117    8.02093559146316
C         9.92582696990269    9.57926068080581    9.36090858456168
C         8.75741979021750   10.31379457548259    9.53697983695107
H         8.59578384999876   10.88571513928875   10.43601807394107
C         7.80190496531025   10.29891590532087    8.53754624757643
H         6.88105137662746   10.85894150791974    8.64227257870150
C        11.00812632901255    9.53884570611264   10.39066375876754
N         7.96708582748551    9.60189951085206    7.41167665636825
N         5.07598478565694    9.63568096735999    4.56183794989170
H         5.46068830779369    9.29715824593200    3.67564858095149
H         4.73979259490575   10.59581965968102    4.44162869168915
H         4.29530809788993    9.03792180924006    4.84548455515094
O        10.72242743719606   10.27309186084810   11.46560183000980
H        11.44401770167161   10.22465595535851   12.11319999101073
O        12.02543512527500    8.91286636152749   10.26478515652779
Cl        6.31643366786207   11.97589904996616    6.18125956872904
Cl        4.85614179677283    9.28445522470034    7.64693977543895
Cl        6.69713641201466    7.26090479242217    5.76217723318050
Cl        8.15701683924360    9.94149145138890    4.29636552660349

