73
CSD_code = HOJWOT | q = 0 | S = 0 | Stoichiometry = C23H34BN8O5PW | MND = 7
W         6.16995911117047    1.06223435118781   16.21981460247117
P         7.99638537405519    1.33901725875104   17.87312246919128
O         8.88579466888700    2.67271583380293   13.45615971340478
O         5.44733138306451   -0.29641517832403   12.48748523554760
O         7.66508556035831   -3.13446937684685   13.55239093672178
O         6.70218988647763   -2.77525104015079   11.56080425025912
O         6.75769927105669    3.76516335834075   15.21469035070565
N         7.12148659235293    1.31076161635269   12.90822243326732
N         4.90712617317292    2.11080458329379   17.62901094334382
N         3.73394549951415    1.60223966700102   18.01042653598052
N         5.45924226536552   -0.70770046966044   17.27429983146771
N         4.17251572265060   -0.80445120109086   17.61309274339601
N         4.26153031396278    1.07042038322871   15.23105869872392
N         3.15443875406639    0.64763268911704   15.84831742117438
N         6.59169558250353    2.61928424416879   15.50767704145074
C         8.19883331742409    1.54274981035309   13.54983238249236
C         8.83671516819124    0.43600704295889   14.33524931953733
H         9.75334886487422    0.76916949632082   14.82576527621836
C         7.79737152686035   -0.15714081427875   15.27446775699546
H         8.20863168554776   -0.98433988751835   15.85685707354201
C         6.56774187244833   -0.38330037520504   14.58108696796602
H         6.03577041987198   -1.32605635420576   14.73039178406948
C         6.67382274746237   -0.04210022468912   13.10793283548978
C         9.12712165656134   -0.66243375021288   13.28133191414279
H         9.91476920593364   -0.33124165018370   12.60281848876245
H         9.45966754445984   -1.56615530237540   13.79582152362324
C         7.83925119581118   -0.96247229782548   12.51366699172636
H         7.92060116121783   -0.70672625313274   11.45532749465752
C         8.32985483274946    3.67803995859083   12.62007308007267
H         8.08755144498755    3.25909133989688   11.64163885965152
H         9.08877646343785    4.45266706398095   12.53502416042325
H         7.42463715736351    4.07949077066780   13.07696661456709
C         5.31224414390396    0.16231176034089   11.15768014548655
H         5.73098855079179    1.16539048800304   11.05531371678556
H         4.24245055758832    0.18263104075364   10.95643899004129
H         5.80156705072670   -0.51823547378309   10.45284426986178
C         7.41584776223061   -2.39959641746958   12.62975430417713
C         6.15045942711392   -4.08223058316442   11.59584333689345
H         6.90607337479790   -4.80371563310769   11.91430987337923
H         5.81039730365176   -4.30022278941557   10.58641908800624
H         5.31130334850483   -4.11506923544314   12.29363672029220
C         3.10749518774877    2.46349608212216   18.82595867433456
H         2.14495794516079    2.23909091320191   19.23852007273754
C         3.90998559335489    3.57457996092760   18.97895526283819
H         3.71298794143880    4.45085119284928   19.56136833701967
C         5.03183315502573    3.30408388982778   18.19637613519031
H         5.88972604555227    3.92276270491926   18.00595778468047
C         3.94178099041802   -1.97786310680843   18.22028331162664
H         2.96375732936588   -2.24190456212879   18.56766372593746
C         5.13091412564537   -2.67270600082218   18.27791129252799
H         5.30692729814734   -3.64320578310141   18.69387676717155
C         6.05457110988157   -1.82625855363932   17.66696031216157
H         7.10035557434970   -1.99852557339163   17.49519596735783
C         2.09092275831357    0.84605306708187   15.05017598680025
H         1.10388659018359    0.56958280880262   15.36248485727482
C         2.53420402360581    1.42121303772225   13.88008108552883
H         1.94920356469302    1.70864511195247   13.03085260489492
C         3.91396005382615    1.55011172384160   14.05059094838617
H         4.65243614068112    1.95687860051291   13.38756461511567
C         7.50729766303665    1.52638098382152   19.64205245256358
H         7.03658780658388    0.60147329149456   19.97460074809026
H         6.79046364614424    2.33721947933647   19.74873209982426
H         8.37815640160186    1.72967079793379   20.26445534302869
C         8.95666435289977    2.87402122520586   17.60312580164788
H         9.72239631413277    3.00487865273675   18.36764104586399
H         8.28162618102288    3.72685631831762   17.60642397125397
H         9.41560096757037    2.81852987458577   16.61697378559615
C         9.39058034608335    0.16094392771707   18.12326308109753
H        10.05913532673934    0.54523854239222   18.89335163797246
H         9.94361549377275    0.04086613826402   17.19517755801620
H         9.00951711867531   -0.80830483879736   18.43812814535897
B         3.17876997573435    0.32574923996939   17.34451673023905
H         2.10365903548293    0.05819240402529   17.75891368197604

