79
CSD_code = HOJWUZ | q = 0 | S = 0 | Stoichiometry = C25H36BN8O7PW | MND = 7
W         5.94067857353910    8.28217978542615    8.87605029574581
P         7.02176504592733    8.38636518327042    6.64523489384671
O         6.20414745158069   12.46444712121881    8.83453993535256
O         2.97785522658191    9.96860859723464   11.04975422123522
O         0.44252061381016   10.45658986684986    9.76289073935489
O         1.06630527132685    9.74983634688935    7.72995130417701
O         3.72068211227756   13.50500779364906    6.33025131032733
O         3.04710471330165   13.95598898284450    8.41645486375705
O         7.87872895015470   10.27667597502872    9.83863028391430
N         4.66774555326895   11.27030267597098   10.05077075997934
N         4.83557229301913    6.50338289429937    8.27888731829633
N         4.86351569083444    5.41547952042276    9.05066368114213
N         5.42162607048921    7.75489061486007   10.89531257747001
N         5.29603374146612    6.47890530782740   11.27205992911975
N         7.47866573738313    6.85779427859798    9.40989688081454
N         7.16448058203140    5.67300106216164    9.93722445438706
N         7.00051483372801    9.57377039971198    9.44099706194858
C         5.22151602889344   11.58326125015415    8.94705590428217
C         4.63839778265334   11.06863455929783    7.66290355863853
H         5.19287934979059   11.42173890645754    6.79188638771780
C         4.48556573318703    9.56120126191156    7.75258306683622
C         3.92053102101077    9.18627036543606    9.01349787573546
C         3.54379030725282   10.39546054972893    9.84837353677437
C         2.50453767962872   11.23493019696022    8.96998051124745
H         2.23435142182281   12.11271969903508    9.56309740854028
C         3.19058419204092   11.65361693064563    7.67380692294521
H         2.65141537972898   11.25363047989974    6.80960163729091
C         1.27990041454806   10.39937888915402    8.72445263777216
C         3.29023356932397   13.15867815298970    7.54959070862166
C         6.64443017333030   13.05832170631532   10.04833190349844
H         5.79625539119418   13.50538475973604   10.57010279822566
H         7.37218691830431   13.81567774135342    9.76599647184276
H         7.10703427996712   12.30211346737724   10.68325719217649
C         2.73975511246002   10.97359030836742   12.01682140543309
H         3.58298371332727   11.66494463158242   12.06332817434210
H         2.62951087993788   10.45263713847764   12.96646096145789
H         1.82056986315842   11.52444831321052   11.79388240268814
C        -0.70992412880646    9.63093605787818    9.69696229131186
H        -1.18154391348260    9.71589608097907    8.71553539513591
H        -1.38142472333021    9.97682331630781   10.47889156941049
H        -0.43337410720264    8.58881216963514    9.86965933561443
C         3.92836701509717   14.89446547646483    6.11406890345831
H         3.01874674214695   15.45368813036673    6.34161381718190
H         4.19367516719558   15.00328265791757    5.06564773979526
H         4.73485620475840   15.25739072066150    6.75422479673037
C         4.09075297739677    4.45480059561420    8.52276762763316
C         3.53735214208404    4.94071682249954    7.35747740829480
C         4.03970466341911    6.23655758617401    7.25151140079256
C         5.05438245664427    6.42189064934440   12.59318361416988
C         5.02817653892086    7.70972889605178   13.08036642888215
C         5.27532167449778    8.51412144455741   11.96632201639708
C         8.28310185554879    4.99817900372627   10.24068809784639
H         8.24169187011154    4.02233986806509   10.68001004746843
C         9.36581245748046    5.77876556041285    9.89345502843871
C         8.80269863584416    6.94630661063007    9.37994004100963
C         6.14028235070346    8.70094765679564    5.05899383478754
H         5.62462707119125    9.65678179834818    5.10478446729833
H         5.41327807748620    7.91307715488139    4.87317676036213
H         6.85909661314933    8.71903482769123    4.24005809031234
C         8.29487022263432    9.69765367722839    6.53927557353744
H         8.79010350671794    9.69396133722367    5.56831740588789
H         9.02892505365061    9.55337534005635    7.32884076228538
H         7.80931235024458   10.65754376066142    6.70955546180549
C         7.98259402392865    6.90575291327125    6.10990980216258
H         8.48075099938555    7.09163468903923    5.15893942702356
H         7.29709978343216    6.06603373009733    5.99766445107443
H         8.72503918597256    6.64823536945653    6.86173750187455
B         5.70650885988459    5.34915332086728   10.32460777336387
H         5.62437138681871    4.28660146184166   10.83734121764144
H         4.02942851508840    9.14858396120728    6.85003347673762
H         3.13029978687545    8.43140012086252    9.03815384003219
H         3.98403491909223    3.50199529471944    8.99980597939660
H         2.87039117562361    4.44029551864241    6.68627059201215
H         3.84118614325124    6.96451633344948    6.48762316148177
H         4.91938418263603    5.48325569174104   13.09207997291782
H         4.85910065561395    8.02300684463929   14.08988110873302
H         5.34863435577822    9.58176275643112   11.89408014341794
H        10.40478449082157    5.54470615958942   10.00091430233000
H         9.29295108925172    7.83402291999567    9.02404735654480

