62
CSD_code = HOJXOU | q = 0 | S = 0 | Stoichiometry = C24H27BMoN6O2S | MND = 6
Mo        0.24426804907268    7.31860435218880    4.28972095018142
S         2.44533279626315    7.48244617778577    1.52640917973850
O         3.03017208381984    7.24448445206148    5.61187802189599
O         0.76802166366145    4.36454914207440    3.54350832727308
N        -0.92000323068173    6.87977711557511    6.06021984397349
N        -2.05116305608091    7.55029437183982    6.33233989302063
N        -1.69947365589096    7.42515906458268    3.37350859618656
N        -2.74278041881443    7.99632824120623    3.99672237782711
N        -0.22913542271720    9.33200276958163    4.81304269482113
N        -1.45043785719937    9.69121892391601    5.24068097632327
B        -2.55940345056673    8.63919096573597    5.37733517176498
H        -3.56306803943169    9.11855872389468    5.76796766871384
C         0.43472976988004    5.06906402680111    7.08933723894239
H         0.40800514048973    4.37417422542522    6.24955562815834
H         0.40579647265132    4.49899370165143    8.01484475118031
H         1.37435876734412    5.61931373183665    7.04219724150298
C        -0.72328136925283    6.00054578452956    7.04039968553881
C        -1.75992082574177    6.11225566222349    7.97025334149565
H        -1.88838061409128    5.54531519505833    8.86993092979697
C        -2.58645878384419    7.11005329852545    7.48621874133744
C        -3.83949426526066    7.64277450717115    8.08165562935333
H        -3.74499091783719    8.70678965580600    8.29225052889232
H        -4.04997307876160    7.11816778389224    9.00977926071204
H        -4.67895625053119    7.50646878525382    7.40188485722095
C        -1.23269342796967    6.31878631413940    1.20718805456844
H        -0.39196522768161    6.96824517962180    0.96147077780422
H        -1.78792102488238    6.09579683035144    0.29956706298000
H        -0.83409668306829    5.39009713970769    1.61543194625210
C        -2.12152956823026    6.99025920620487    2.19016197950796
C        -3.48026420900931    7.28781374389547    2.05031483080917
H        -4.10985349221921    7.06689954058329    1.21233482203156
C        -3.84222155105669    7.92749450800205    3.22075950584795
C        -5.17301816062537    8.46096180275253    3.61257739230252
H        -5.52449047782057    7.98881714202002    4.52859220716000
H        -5.88884426770621    8.26445394350509    2.81894964448020
H        -5.12404821063423    9.53520701237274    3.78370036498387
C         1.93181981827329   10.42358156708379    4.28925237050997
H         2.56040324027158    9.88665257891105    4.99967302449729
H         2.29750316659028   11.44312155925869    4.19826601836368
H         2.01408368612844    9.92199298237290    3.32269758195916
C         0.51755887686277   10.43163152403014    4.74243596840506
C        -0.24896802548541   11.53035513546957    5.14095759232992
H         0.06312668578156   12.55361125168513    5.19470754566276
C        -1.49567996800513   11.02050058916673    5.45301862614719
C        -2.69958819319054   11.74588936754875    5.93605194663161
H        -3.02205086763836   11.36025937525462    6.90183201362796
H        -3.52509015583543   11.63329394257174    5.23494011904915
H        -2.46809341146156   12.80260684038660    6.03877134680761
C         1.94794183134651    7.29814435200636    5.20741843835848
C         0.50579271717050    5.43836797996843    3.88058053478813
C         1.33812050042861    7.52366813750142    2.77369887819570
C         2.91112062009953    5.74546559082733    1.60066518118905
C         3.56719420849952    5.26354811458002    2.71985053174169
H         3.80614627749340    5.92824985706179    3.53651390784412
C         3.89934386567479    3.92169449172078    2.77599330225922
H         4.40391233168430    3.53493899813728    3.64847699863650
C         3.58418002563432    3.08029720598648    1.72198328651897
H         3.84183487378383    2.03288164638893    1.77283941936565
C         2.93633078845884    3.57825553222883    0.60424992054871
H         2.68831362905201    2.92296944686124   -0.21759436754638
C         2.59534620626519    4.91792481180308    0.53779298539510
H         2.08458006653502    5.31783409942089   -0.32526329586243

