57
CSD_code = HOKBOZ | q = 0 | S = 0 | Stoichiometry = C18H29IN6P2Pd | MND = 4
Pd       -3.33923605268035   13.31668838215539    7.48222327158809
I        -3.33749251850058   10.71612790666305    7.48874730412910
P        -5.56211904682879   13.43732437724125    7.84801890010571
N        -8.00056652942474   12.37611714427977    8.53643085713998
C        -3.33990390581017   15.31583270433302    7.48062646870539
N        -7.91336103969465   13.56153367336428    6.41758567039882
C        -3.15456608917721   16.01609808452777    8.66612730097920
H        -3.01859172252644   15.47497910091498    9.60259894693956
N        -7.86215072490709   14.80027281022265    8.51199949954575
C        -3.15121833339793   17.40251031959898    8.66532790742316
H        -3.00417321254121   17.94173549553365    9.59076357470909
C        -3.33940942923016   18.09535140040399    7.48096521702603
H        -3.33927675568604   19.17556301956320    7.48108135450195
C        -6.58333173731990   12.10684576564693    8.65661899080423
H        -6.35959980428223   11.14157205128789    8.18724453469496
H        -6.31623012568757   12.03769934104885    9.71876750487413
C        -6.47893463289304   13.47323584468670    6.23226170137391
H        -6.13972513243949   14.33928530846816    5.64773227356267
H        -6.24400964411630   12.56009104133442    5.66758312890169
C        -6.42099085876117   14.89476227435490    8.62775854347876
H        -6.15165431399407   14.94862378694718    9.69007773039220
H        -6.08171772885880   15.81892316056659    8.14324409516302
C        -8.42862346731931   12.41324266052227    7.14858554782911
H        -9.52173705323265   12.46447441893272    7.13050557887610
H        -8.10493002880555   11.49656759924491    6.64919123664233
C        -8.37996282339199   13.61838028759708    9.18447615080389
H        -9.47265879779844   13.68242886238485    9.18635943019929
H        -8.02179347273428   13.60904964757339   10.21754447595723
C        -8.28880072663688   14.77649639954584    7.12203223127059
H        -7.85982651052433   15.63883401645879    6.60372216607169
H        -9.38035496869822   14.85507900151802    7.10260306450662
P        -1.11668139280692   13.43746125540129    7.11483872175242
N         1.32151910788684   12.37639237371786    6.42561882955966
N         1.23468388978062   13.56080625596380    8.54505163159655
C        -3.52492107494715   16.01639933248630    6.29529749343445
H        -3.66098156876483   15.47555532505959    5.35875495122054
N         1.18334448377431   14.80054454223331    6.45121291893485
C        -3.52779775122323   17.40281796193072    6.29646914009616
H        -3.67472588793505   17.94227512906135    5.37115568944989
C        -0.09573444773193   12.10727678872119    6.30537467463066
H        -0.31948108350223   11.14175917260989    6.77423738039520
H        -0.36286346145169   12.03882018273453    5.24318492735496
C        -0.19972740598672   13.47252869070817    8.73048475864310
H        -0.53884023627827   14.33835026751664    9.31543548121669
H        -0.43470855135476   12.55912760751257    9.29472753311318
C        -0.25782619828105   14.89520509226104    6.33564182188216
H        -0.52725999008532   14.94956278238053    5.27337037350979
H        -0.59697332965557   15.81919601018353    6.82057901774717
C         1.74970503179688   12.41279256019977    7.81345859591422
H         2.84282777625354   12.46384777018580    7.83144335231525
H         1.42590789738829   11.49593020026850    8.31243603765653
C         1.70099160621015   13.61892558610779    5.77813891143682
H         2.79369535965471   13.68286411845972    5.77621808118752
H         1.34276957231775   13.61011887764272    4.74508044841325
C         1.61013927510536   14.77606386673652    7.84113221833253
H         1.18128530748458   15.63819719787437    8.35988188084727
H         2.70170026030851   14.85455516504961    7.86047047082230

