75
CSD_code = HOKBIT | q = 0 | S = 0 | Stoichiometry = C37H33IOPdS2 | MND = 4
I         3.81548835756209    3.63024787803382    3.19310619902589
Pd        5.76190299469369    2.77994814679652    4.63425511262451
S         5.42665107702154    0.53983361243897    3.60744759666897
S         7.27354724247330    1.69869240447490    6.04797651712552
O         6.42721198395186    3.42353158056872    7.63667033260512
C         6.62055028499577   -0.54142958744687    4.48567777247811
H         6.04767114568884   -1.01931778598600    5.28296176883127
H         6.95214903770400   -1.30128404533711    3.77592560669881
C         7.79005858748847    0.23770193181674    5.04607726045516
H         8.41145948827367    0.64849528045147    4.24628043709573
H         8.40446751299460   -0.40131497847148    5.68331979083210
C         6.29945395289713    0.69711352322736    2.06144395293866
C         7.10475584784012    1.79827929417583    1.82922506566522
H         7.18616570076545    2.59210476898739    2.58224421973141
C         7.78931289472603    1.88575200283591    0.62913502618233
H         8.42010564589597    2.73918847506109    0.44018147267060
C         7.66208662519813    0.88475928982621   -0.31907636833153
H         8.19683690711537    0.95999888048201   -1.25382354374164
C         6.84530555900971   -0.20873694909041   -0.07874166079594
H         6.73892096370850   -0.98313704886814   -0.82319996995925
C         6.15643492635208   -0.30621430320188    1.11605841782751
H         5.50658680726571   -1.14526983318048    1.31595535826502
C         6.09245727763436    0.86876777207839    7.10622057903672
C         6.58929547334764    0.23831634284252    8.23579365322732
H         7.64763676365996    0.27667783077864    8.44567638464016
C         5.72120489763561   -0.41348703053874    9.09246787142752
H         6.10680370130748   -0.89889739688279    9.97657240133556
C         4.36190242691913   -0.43429907816888    8.82183453735623
H         3.68450858728227   -0.93804641977196    9.49478816017508
C         3.86948877596420    0.20019766233271    7.69490228560825
H         2.81017978184575    0.19780061532324    7.48643104101551
C         4.73090201627620    0.85839514792381    6.83146239491360
H         4.31164428079480    1.37234666831220    5.95822800660976
C         7.56331229423616    4.94181305461725    5.52937627810074
H         8.09619536245199    4.26240262791659    6.20810787241373
C         6.08705354552665    4.59367265675028    5.59914429861282
H         5.42973197353669    5.38883971358912    5.23709211856397
C         5.64135222504838    3.96981436733810    6.83873783929908
C         4.18544488680334    3.94922478813192    7.06806212295647
H         3.55685561573593    4.40889668356497    6.31594119964883
C         3.67907267894306    3.36632632647336    8.16600194818738
H         4.38905602497549    2.98230451472571    8.89110088874011
C         7.73336576838754    6.34854346710472    6.07359647784621
C         7.85495375173338    6.51354383059001    7.44872237897152
H         7.84802832572392    5.64314853942735    8.08905323965947
C         7.97333948504077    7.77675696495539    7.99789378911293
H         8.06794653969827    7.89007395286770    9.06830256094223
C         7.97163193379221    8.89302377301897    7.17829141991029
H         8.06623813226363    9.88064876713723    7.60537059720138
C         7.84622118931563    8.73597030247167    5.80915872853242
H         7.84172316097315    9.60209506417686    5.16312518547832
C         7.72398335118284    7.47174503871969    5.25849743830984
H         7.63006595650372    7.36510086294453    4.18791135464343
C         8.13822881885095    4.79404523312503    4.14102652041781
C         9.45526410581881    4.36886519485807    3.98910625686155
H        10.01998357626850    4.07404215386511    4.86303543459725
C        10.05363127834832    4.34795360459823    2.74189830989731
H        11.08095913842856    4.02715519819113    2.64398977123105
C         9.34476946343337    4.75767484223531    1.62456713837330
H         9.82574427753538    4.77725359205403    0.65650211535707
C         8.02325342700096    5.15092875805477    1.75597973610571
H         7.45793369079227    5.45904506448398    0.88846619343957
C         7.41756189393687    5.16249046338919    3.00310439183379
H         6.39467539925295    5.50602134032408    3.08525810543986
C         2.28002254626348    3.17636586760862    8.48473854701436
C         1.93290885809833    2.70788994060964    9.75521387040555
H         2.71439776776377    2.51931935850331   10.47809787650751
C         0.61178435583983    2.49234569628968   10.09372525297028
H         0.35951416602504    2.13508883955696   11.08181212415688
C        -0.38984943740690    2.73024527359099    9.16574532724824
H        -1.42337941099112    2.55902647566004    9.42840225024055
C        -0.05966611233540    3.18236235692418    7.89744592632229
H        -0.83696125939260    3.35989967601956    7.16884568787986
C         1.25990178509818    3.40426129652733    7.55648546005420
H         1.50080194309345    3.74035982523497    6.55988828660358

