93
CSD_code = HOKFOC | q = 0 | S = 0 | Stoichiometry = C42H44P2S2Si2Zn | MND = 4
Zn        8.04532911359281    1.98324365317298    5.93164712493356
S         5.99607023886390    0.99412991277433    6.54207390271387
P         6.44742514743069    3.48570496496996    4.64593397398324
Si        4.04742242262334    0.99941604490618    9.06796886113795
C         5.07755171974342    2.45415185675003    6.81078072078185
C         5.17859107440322    3.55142145571184    5.93842186748630
C         4.34439677515032    4.65173155727104    6.11476471575874
C         3.42458116858082    4.66534035720821    7.14379332871545
C         3.35213033454266    3.59066022852759    8.01562153977108
C         4.16387208796135    2.47610576866417    7.87201753607775
C         5.68998919509732    2.40300216325304    3.39967083060600
C         6.48096966820987    1.44868822898203    2.77101830143480
C         5.92616563745380    0.60899880964274    1.82256989554131
C         4.58232809383492    0.71903670976261    1.50477926390545
C         3.79092976008196    1.66689134552264    2.13532446930811
C         4.33928812903541    2.51049636852596    3.08302026708532
C         6.41088347446684    5.14022659527984    3.89429323641420
C         6.70618346609504    6.23077075253366    4.71166973978634
C         6.76923653435504    7.50266226417610    4.17729828692973
C         6.55593905982569    7.69540895102187    2.82089965536491
C         6.28462682370136    6.61187968828833    2.00212661969256
C         6.21873727251003    5.33493185660828    2.53150413173149
C         5.72734785978645    0.65913557582552    9.91095776765539
C         2.81793560988529    1.47033296505271   10.45150206364243
C         3.36220019199450   -0.54324465980371    8.18277991847908
H         4.40557901670497    5.49039381253886    5.43537364295458
H         2.76694874225508    5.51373452964914    7.26655691880053
H         2.64093881768542    3.61799914631247    8.82656581168906
H         7.52886949647321    1.36367863075536    3.03510814860374
H         6.54099594294972   -0.13367025202484    1.33627380703660
H         4.14708463021068    0.06017217891618    0.76790734622202
H         2.74172657949122    1.74483332786610    1.89014396446656
H         3.72704092694416    3.24685079708823    3.58623785665379
H         6.86774123356074    6.07127439178436    5.77045632551482
H         6.98510793832403    8.34580944449432    4.81736038333306
H         6.60524614509608    8.68975085706811    2.40261336230725
H         6.12417443468293    6.76118262271390    0.94440631509010
H         6.00963903725681    4.48982758629510    1.89054691287358
H         5.59273925834936    0.06973130779641   10.81301602421236
H         6.38660646996762    0.10745684943556    9.24995722543591
H         6.22657772593841    1.58296932561734   10.19145441298510
H         2.74738454773565    0.66315996659743   11.17279060969856
H         3.12825539523564    2.36021644803692   10.98954588900651
H         1.81941439542938    1.64359969591080   10.06403335051819
H         3.27088954146667   -1.37678427032987    8.87253605723684
H         2.37916777602090   -0.35185928935629    7.76206614221343
H         4.01534189140622   -0.84856481646604    7.37290551658062
S        10.09444363919000    0.99448311292196    5.32049126658166
C        11.01285357244045    2.45449111048555    5.05143776655647
C        10.91199718232995    3.55194574658816    5.92359755642024
P         9.64340293652679    3.48653816521688    7.21632078114290
C        10.40066994060569    2.40353497115491    8.46242008811076
C         9.60954331655199    1.44898658864421    9.09052387213953
C        10.16404289666327    0.60905797708441   10.03892978581182
C        11.50773432714740    0.71917230708090   10.35730858604761
C        12.29928268369176    1.66729494456246    9.72735492935243
C        11.75123650685002    2.51107946291734    8.77963279211492
H        12.36360923307796    3.24764496216319    8.27687241215290
H        13.34837250269913    1.74528405938713    9.97300779219498
H        11.94274433003598    0.06015370620926   11.09417969119549
H         9.54907450866893   -0.13378935468679   10.52477035652772
H         8.56172374286792    1.36400741616060    8.82605344018281
C         9.68017469430034    5.14089977406673    7.96837413962582
C         9.38385713502289    6.23163362100125    7.15161952769900
C         9.31992355271820    7.50321576482613    7.68664564891677
C         9.53349606763501    7.69549993479785    9.04306569703409
C         9.80619983675828    6.61182296463916    9.86117265816012
C         9.87286029954373    5.33517806816251    9.33116088850799
H        10.08295130510102    4.48998056963773    9.97166301891005
H         9.96703262150143    6.76075215617620   10.91888789869302
H         9.48327606953941    8.68956795890043    9.46189835321677
H         9.10297187073914    8.34648173621970    7.04710563956119
H         9.22203057000096    6.07254375653996    6.09281496938167
C        11.74608372279536    4.65226924792898    5.74679972983279
C        12.66574170023245    4.66562590916232    4.71761915885912
C        12.73808168658246    3.59072016502555    3.84604561128191
C        11.92634328269573    2.47621622791154    3.99002118669439
Si       12.04245220072375    0.99919468511014    2.79442281672527
C        10.36245367379320    0.65936763934938    1.95136301844292
H        10.49706466516541    0.07064483519936    1.04886293682813
H         9.70327614273953    0.10714541442373    2.61199337803783
H         9.86312566558148    1.58335234403571    1.67154912683443
C        13.27220727061266    1.46915302830550    1.41081018470964
H        13.34287642597000    0.66141111435195    0.69016557393530
H        12.96196687696094    2.35861235605380    0.87202145515878
H        14.27065820069952    1.64272016194753    1.79832047565408
C        12.72704249055614   -0.54352217732632    3.68001078342478
H        12.81732566219588   -1.37747211910687    2.99061780906565
H        13.71046795103084   -0.35263720841405    4.10002745623786
H        12.07417295353762   -0.84797549689752    4.49042985069968
H        13.44913303756586    3.61785998810467    3.03496597911656
H        13.32337176340580    5.51397687315187    4.59453977838877
H        11.68494848255606    5.49108982546432    6.42601009148647

