61
CSD_code = HOKGIZ | q = 0 | S = 0 | Stoichiometry = C25H32Cl2IrP | MND = 8
C         1.46392320909996   17.35325169888250   10.05167856277149
C         1.95512865926800   18.69845324708082    9.84408411380165
C         1.13091953460414   19.59314517793432   10.58448466435541
C         0.21314440769866   18.80385114205892   11.34591596407951
C         0.38367842853793   17.42349730049369   10.95522415436597
C         1.96175841111245   16.16372859447362    9.29788329454600
H         3.04625945218737   16.09305290049032    9.37231833799432
H         1.69895394414366   16.25564122166248    8.24251754973900
H         1.53432022162610   15.24306331293372    9.68651265883275
C         2.97191942508033   19.07354851807504    8.81646927097743
H         3.85233298822957   18.43880053664304    8.90066094799022
H         3.27565503050131   20.11128296626601    8.92882604941740
H         2.55423001145515   18.93822243329738    7.81699653230315
C         1.14843225407632   21.08249036058376   10.45403244494261
H         0.44481732274844   21.54034417987384   11.14397245929451
H         0.85782646109756   21.35793042054391    9.43881245302163
H         2.14174677582900   21.49127599353985   10.63987642174733
C        -0.92410858380268   19.29785541127002   12.17926840856127
H        -0.71384693281650   20.28032969059250   12.59568786282239
H        -1.11169990367213   18.61481273305982   13.00510661199274
H        -1.83186777660053   19.36176712791238   11.57553720170828
C        -0.51165380149250   16.31713297820276   11.40450655429913
H        -0.49563532884413   16.22611390302914   12.49039828609614
H        -0.20389420950309   15.36503218493701   10.98045459697424
H        -1.53708236041578   16.52522194130463   11.09650250738515
C         4.07438764985628   21.01966551097659   12.80741939220256
C         4.75188318744818   20.81068719140545   11.61009859443223
H         4.72476402186126   19.82852389950800   11.15975792382325
C         5.46374525211834   21.83972524901601   11.02063240177708
H         5.98727958160297   21.66970297395702   10.09136490608279
C         5.50619362633377   23.08616118902515   11.62403338735087
H         6.05699768991704   23.89303694674130   11.16363262565500
C         4.84734345095514   23.29483368755109   12.82478327064740
H         4.89035874788196   24.26215109641222   13.30387047865825
C         4.13576995218503   22.26739109462440   13.41912431271774
H         3.63090757826073   22.43609346133728   14.35943575791927
C         1.95553293086581   20.31622881510315   14.62818329134693
C         1.22446488705917   21.42072981329492   14.19877161157787
H         1.46165677809812   21.87662482440708   13.24808253811559
C         0.21146470799639   21.93873658825175   14.98421034189336
H        -0.34610117391697   22.80067499362457   14.64587584105444
C        -0.09272607501491   21.34906792079965   16.20058973233954
H        -0.88590279182267   21.75223170837981   16.81269721219539
C         0.61603909534737   20.23678480939830   16.62313298136126
H         0.37225480420002   19.76741888386587   17.56462625279153
C         1.63222231807411   19.71696305905322   15.84134888164636
H         2.15947702282742   18.83221065799551   16.16088238478111
C         4.50512237850078   18.90523270511173   14.63639087838809
H         4.07817997767505   18.03881954464230   15.14788411084826
H         5.29533972274525   18.53656899852312   13.97526443203332
C         5.06858256420162   19.91460550172557   15.63333553530242
H         4.26020114423096   20.35077379955125   16.22527540800584
H         5.56625504515536   20.72492421322521   15.09590386616422
C         6.06912426035395   19.23783622438385   16.56322048371004
H         5.58751617398761   18.44487641178469   17.13038395552009
H         6.48615033270185   19.95793696513406   17.26340324098665
H         6.88384633745667   18.80160268187345   15.99043089284165
Cl        4.40940498531913   17.25701814422501   11.75626287428541
Cl        1.83769238050307   17.00496117732740   13.98032141804157
Ir        2.24593798553783   18.18680985654832   11.98052007095682
P         3.20437582933170   19.58754342613319   13.52882080254940

