126
CSD_code = HOKKIB | q = 0 | S = 0 | Stoichiometry = C59H62O4W | MND = 5
W         2.55125782018418    3.64908909218074    3.83658277536181
O         4.45904938698882    3.14481726357199    4.01893641086696
O         3.05815131264606    5.35968509833614    3.80066199255121
O         0.73421764183944    4.23777270011418    3.30713587684659
O         2.56159045409314    2.67932446556112    2.29372546562754
C         5.13564298516332    3.48439681138073    2.89894814786002
C         5.29832153503601    2.56459289342040    1.84244927782925
C         5.93746529720258    2.95566284821696    0.67473678044616
H         6.00844948770127    2.22406038297882   -0.11427155992056
C         6.47238393763034    4.22580822852136    0.51265621120753
C         6.39270363945056    5.08927928721777    1.59898958712690
H         6.83825073825450    6.07159297382526    1.54379462670883
C         5.75833197372820    4.74412096355335    2.78121203411972
C         5.74546643309704    5.74193688265913    3.92394297476306
H         6.75987383082766    6.09729532405408    4.11447919021101
H         5.35951046320452    5.24204081474971    4.82707832375772
C         3.48185063619176    6.59681838983551    3.48996043555977
C         4.84234115740114    6.88961448826069    3.55828376374620
C         5.26463730014933    8.16646840084755    3.22453239842643
H         6.31960923544430    8.38010289766382    3.27967989199798
C         4.36148287745856    9.14986827700843    2.83362864628197
C         3.00688739218172    8.82187249732870    2.77272358453900
H         2.28435449716080    9.56354213178507    2.46730881933055
C         2.54973741456006    7.55913663005494    3.09991090154118
C         1.12096788615847    7.09506684673318    3.00771607997086
H         0.84461047028090    6.57105735629751    3.93680307528511
H         0.45159449440211    7.94496020346911    2.86135499386567
C         0.76196342406414    4.75555217601322    2.05863017540778
C         0.98161486998690    6.12994813843633    1.84528632242582
C         1.07279119448944    6.62592552214998    0.55116706972422
H         1.27009327363495    7.68029406069409    0.44228834646140
C         0.91396972907462    5.81773161398591   -0.56412934963050
C         0.59943749780421    4.48142976541357   -0.33840364069266
H         0.41724407348379    3.81915206874213   -1.17204726238921
C         0.50315526350230    3.94323931655655    0.93289835154061
C         0.13857714781181    2.48147132326531    1.08902736875124
H        -0.05697669668810    2.28049691628737    2.15590475742761
H        -0.76337152518869    2.26067042062543    0.51477899906639
C         2.47609215971783    1.75866288044238    1.32962935164859
C         1.27785412109112    1.60660027474182    0.63256078079941
C         1.21905171638349    0.67884944347041   -0.39427426462386
H         0.28849995907041    0.57431831904914   -0.92806994523669
C         2.31808138189302   -0.10950229902916   -0.72228645810850
C         3.48572251748591    0.03095213395525    0.02920366940647
H         4.34148631019072   -0.59361108140781   -0.17894501140864
C         3.58019304424108    0.94734301825176    1.05908917904451
C         4.77691567042470    1.14654587972994    1.95289133634614
H         4.47084398421867    0.96690392318328    2.99705856524838
H         5.56737920680808    0.44110132358383    1.68879986589914
C         7.14787884128646    4.68971562995584   -0.76849513398869
C         4.79565240600684   10.56019066285139    2.46033814314275
C         1.04239750388328    6.33017423770253   -1.99011642945195
C         2.28809356560791   -1.12705742292876   -1.85422802669187
C         8.61955373002602    5.01162135581843   -0.47474265738291
H         8.71047200241747    5.80364583252470    0.26316201974181
H         9.12262018211923    5.33250684948984   -1.38453296771647
H         9.12717025344805    4.12926890075398   -0.09144464561488
C         6.43251213388627    5.94840313791102   -1.27953837224238
H         6.49104793885952    6.75929949566654   -0.55885003468052
H         5.38185850459162    5.73244601603892   -1.46259066574235
H         6.88310750970249    6.28559822356587   -2.21074799548486
C         7.09818218989158    3.63154590066969   -1.87365352226437
H         7.56486469435866    4.02515471999474   -2.77447718159512
H         6.07112812978833    3.36625044564797   -2.11358342697102
H         7.63929205035054    2.73512857214935   -1.58097391440429
C         6.30792012860536   10.76596634398764    2.58254134750495
H         6.64432402022748   10.59901671757383    3.60291579003716
H         6.55624261657981   11.78994746607797    2.31126594225635
H         6.84993151067223   10.10242737087506    1.91285532337940
C         4.10278150865816   11.56266244102449    3.39386014482935
H         3.02192847685411   11.51187995077014    3.30048487670143
H         4.41762258026445   12.57603166300377    3.15438247784876
H         4.36546339933001   11.35460432211722    4.42868758606932
C         4.39214835507818   10.83786230246019    1.00498947960906
H         4.85620771499438   10.11154484615414    0.34092178911618
H         4.71775497683847   11.83290446129387    0.70974778514756
H         3.31550006592589   10.78033021658870    0.87330569904570
C         1.44586509998054    7.80592304991521   -2.04875699208396
H         2.39617086951779    7.97071345388387   -1.54598456121838
H         0.68663305890748    8.43730534207688   -1.59372832457233
H         1.55576393913711    8.11085869231648   -3.08754304474259
C         2.11843626346003    5.51195563253601   -2.71779416014844
H         2.24618639609960    5.87789604650891   -3.73447700520245
H         1.85353973290627    4.45950835416837   -2.76506457398017
H         3.06994882870198    5.59930695741297   -2.19714035613756
C        -0.30562712007393    6.16904984923933   -2.70600455509600
H        -1.07720066559326    6.73064576654284   -2.18395947972581
H        -0.60982519693164    5.12690969914402   -2.74291094038163
H        -0.23636414609278    6.54155538827638   -3.72589170993386
C         3.40470225272453   -0.79623872386736   -2.85514995602953
H         3.27592607624226    0.21257683746171   -3.24196472653447
H         3.37692277144039   -1.49237860263527   -3.69077350730086
H         4.38545169508701   -0.86135260976306   -2.39304565207483
C         0.95813905275807   -1.12943957501286   -2.61300675867865
H         0.13336724334943   -1.40071795259123   -1.95850635420797
H         1.00178590940924   -1.86212033180954   -3.41637484156572
H         0.75860123666143   -0.15652637504502   -3.05620454789188
C         2.50802108175515   -2.53120274008123   -1.27513939551706
H         3.45381932409375   -2.59930405019333   -0.74520525577994
H         2.50815853050641   -3.27082671366088   -2.07316344115675
H         1.70907970740394   -2.77624617465332   -0.57901111446023
C         2.02167303002354    3.05141214340142    5.67260856758300
C         1.80259312285612    1.80023497220845    5.04748960142882
C         1.56165405308017    0.64120221826103    4.67584963917440
C         1.27238199575413   -0.69308304845579    4.36055309983260
C         1.37976434700759   -1.19910683091325    3.05779591902239
H         1.69520492060847   -0.54564487638893    2.25870079819147
C         1.08541018978809   -2.52134371941132    2.79791859401619
H         1.17609062049807   -2.89559501378779    1.78807509449034
C         0.67812262480122   -3.36990648461660    3.81529382587526
H         0.44894815022021   -4.40373255470667    3.60381579632554
C         0.56759849391075   -2.87959200255897    5.10858145321020
H         0.25095027805082   -3.53490701243064    5.90759773797850
C         0.85931950869309   -1.56173753179488    5.38499937726065
H         0.77446603004927   -1.18119851407208    6.39209540030765
C         1.78765111246471    3.23450985734585    7.08311255835151
C         1.33164513031311    2.22777553177085    7.94639274974886
H         1.13989041987255    1.24537326612204    7.53980634665917
C         1.13174960221362    2.48702219049739    9.28637162631007
H         0.77963776809641    1.69910564699124    9.93762725598279
C         1.37798211586891    3.74890351779309    9.80615003799364
H         1.21953498522855    3.94549416600212   10.85614679110024
C         1.82978644637822    4.75855453672706    8.96687534149586
H         2.02282150201341    5.74395122785800    9.36797089642280
C         2.03190254818064    4.50775842351419    7.62783561116876
H         2.38560345035816    5.28646872295519    6.95363479132284

