78
CSD_code = HOKLOL | q = 0 | S = 0 | Stoichiometry = C31H42CoOP3 | MND = 5
Co        0.41302515828942    4.77151006473077    3.38054452702208
P         2.66545733699194    5.18770893698536    2.96671125416602
P         1.11271068570998    4.07115249590215    5.28464659662597
P        -0.09363194875438    2.64692364983936    3.00689236453285
O        -1.06153514116741    7.01811320889734    4.44059310487348
C         3.00974704608320    6.83103608683580    2.15209938908104
H         4.08325143698092    7.03969610253585    2.20275087684577
C         0.88102142707042    1.59290871251096    4.14604413450275
C         2.56766900193387    6.75113490969168    0.69533857662768
H         3.14507101679560    6.00955058365117    0.14562720036395
H         2.69062386354536    7.71608661130646    0.20563536869969
H         1.51577183070524    6.47266574264298    0.65117649500356
C         1.12690996937909    0.23261934428805    4.00797439297362
H         0.70993599247868   -0.32008351198019    3.17925674502991
C         2.24873553652913    1.61386861030000    6.14531069501552
H         2.69389528576304    2.15608799301773    6.96792545248144
C         2.48645130587845    0.25862518342059    5.99292151445660
H         3.11503321539197   -0.26168222377907    6.70099068284908
C         5.38723314368737    4.72417610368880    1.93741802260801
H         5.33307731766441    5.57039840369247    1.25802816789846
H         6.02158321227362    3.96877104323378    1.47308508696885
H         5.86768847255696    5.03403256150120    2.86187683603790
C        -0.76784697470659    3.52243997447365    8.91928637016747
H        -1.09917408467014    2.71120568242435    9.55193769305565
C         1.44916363903402    2.27912107848997    5.22612599892174
C         0.30408351135489    4.27822295111691    6.90686055465809
C        -0.44092291661710    6.14062943545142    4.01383691245594
C         1.92576046996831   -0.42734119976616    4.92783002187098
H         2.11698499471987   -1.48414214128880    4.80839726807732
C        -0.55611595899538    5.87357248226077    8.49308459009541
H        -0.72331358496052    6.89836326855038    8.79073550089146
C        -0.98413451106813    4.83418020789786    9.30475116205525
H        -1.48634462298933    5.04731576813206   10.23694494274398
C        -1.02991297498602    2.34060457639989    0.41273367647813
H        -2.04304014582880    2.04998754303210    0.68060444331962
H        -0.83728281965563    1.99722163589853   -0.60298289135251
H        -0.96562219636532    3.42807596357543    0.42602315623130
C        -0.12818944171314    3.24103803818952    7.72431972299858
H         0.04036948818680    2.21172491495425    7.43667488682465
C         4.56299007054891    6.14704525288554    4.89099621604719
H         5.06917484760414    6.68091083833072    4.10120113349869
C         2.72900287931972    4.81658360364351    5.68870110383167
C         3.24417116806301    4.88147319052352    6.97835319196479
H         2.71427493398429    4.41926106606035    7.80046051940313
C         0.00045902633172    1.75077005525080    1.37098699522156
H        -0.19831952801394    0.68378412864676    1.51545937868228
C        -2.12898762546790    2.82412478891053    4.90030956182109
H        -1.54756574512827    2.31744341244620    5.66945800734998
H        -3.18438852356138    2.72182927808861    5.14964607711279
H        -1.87655061917981    3.88537582084565    4.91190338819434
C         3.39843098367580    5.43541193333478    4.62820686184254
C         2.25823059963465    7.93481284626368    2.88463183332252
H         1.18661144480618    7.75330309725274    2.82834221559976
H         2.46919175626595    8.90221436312539    2.43079056626622
H         2.54674161143808    7.97436942773223    3.93464582984743
C        -1.84344501473332    2.22435588729399    3.52954671556919
H        -2.46492670068486    2.75151745773061    2.79419080608234
C         4.42388619881918    5.56265903000076    7.21733526802308
H         4.82586807448929    5.60940999226523    8.21909920809733
C         4.01839687875636    4.10831020827032    2.20533610948450
H         3.58995639240332    3.80177276550598    1.24240309315425
C         5.07208988395661    6.20787931093690    6.17696799964157
H         5.97628822237075    6.76742354758330    6.36969438405446
C         0.08106779508714    5.59644238279757    7.30028670596165
H         0.41899345487400    6.40080775365730    6.65896058122970
C         4.17773206622691    2.86684620030157    3.07810099126685
H         4.68720364007356    3.11479606714661    4.00898715536731
H         4.76037280267550    2.10400630935227    2.56266827246201
H         3.20541319332177    2.44564302349119    3.32771231284205
C        -2.18608725864110    0.73811214211368    3.52527740435212
H        -2.08893830394181    0.29670491967645    2.53675017513035
H        -3.21931164667391    0.60803965122843    3.84615826030716
H        -1.54885708915471    0.19245104352351    4.21929779975522
C         1.40335549807842    1.93139176908270    0.80721106862140
H         1.60960771487446    2.99652092676012    0.70695005367805
H         1.48875128517607    1.46627889930068   -0.17429425678618
H         2.14945065204878    1.48822682493777    1.46469170646418
H        -0.12322205663319    5.17156999080805    2.10426381127082

