72
CSD_code = HOKMEZ | q = 1 | S = 0 | Stoichiometry = C36H31N2P2Pt(1+) | MND = 4
Pt        2.40869412039821    4.07774969054338   11.68638091571064
P         3.59999779200553    2.39106512397928   12.59710942744522
C         5.19645495550904    3.16235005458058   12.85933151292470
C         5.22010120174541    4.52857687471908   12.49800328571647
N         4.10312711213852    5.10628840824340   12.00641327707386
H         4.21626608249971    6.09254278461044   11.79442641752921
C         6.43421533598285    5.21451243952122   12.68266142850274
H         6.49215414127418    6.26269253535307   12.42410130072229
C         7.53813051893911    4.56122167939056   13.18004491518306
H         8.45913910119187    5.10952498445943   13.30983249875980
C         7.49486129766655    3.21045655907169   13.51874696033828
H         8.37391317459464    2.72007978467190   13.90430841691815
C         6.31840918699202    2.50957500826118   13.35636175615685
H         6.25372551648832    1.46132734456139   13.61382104281486
C         3.77753072422972    1.04559321579978   11.40209672686792
C         4.13562329405219   -0.25027544766344   11.75520833159771
H         4.29498111242489   -0.50479737932501   12.79353265331174
C         4.28102604269713   -1.20984106406729   10.76826207360188
H         4.55524948820646   -2.21830481520574   11.03854996202412
C         4.07951630379943   -0.88038405474552    9.43754300457327
H         4.19138542519646   -1.63511581433453    8.67441908846931
C         3.74308033057291    0.41703510488271    9.08146009877739
H         3.59614933068037    0.67285792121184    8.04325243108098
C         3.59446215307161    1.37794305866930   10.06161298062612
H         3.33434528082222    2.40546652121390    9.80664029974940
C         3.01736428267560    1.68997590859510   14.15887393567493
C         2.10705908560699    0.63669602721140   14.17855515001037
H         1.79913145137284    0.18058941872778   13.24866720349236
C         1.61420261447207    0.17189668940033   15.38274393720994
H         0.91380133234041   -0.64941952632070   15.39642902423339
C         2.01809144949389    0.76057982013021   16.57109460399100
H         1.63235289618182    0.39492657398165   17.51027866841266
C         2.91877432611548    1.81385219712749   16.55567934108441
H         3.23454795325110    2.26845558160077   17.48230415874666
C         3.41614833033621    2.28353742914575   15.35384064700026
H         4.12099942565375    3.10312812637829   15.33021420262423
P         0.42655324354529    3.04015740180270   11.28893794355420
C        -0.60447005008061    4.40992439302252   10.66642324368323
C        -0.00350794696525    5.65805870637115   10.51007342988383
N         1.40864987109968    5.81788286043301   10.78975902402192
H         1.91494567778984    6.01036059613644    9.92006384276719
H         1.54970505910344    6.63090544044214   11.39458576009560
C        -0.76215975290271    6.73984016763135   10.08283124968602
H        -0.30057911086020    7.70999251540310    9.96304378706638
C        -2.10951915538541    6.57694206005286    9.81202149306782
H        -2.69279736540721    7.42223168855510    9.48265170494824
C        -2.70790014052750    5.33506356899244    9.96299890852127
H        -3.75832205625314    5.21340523743603    9.75071177018400
C        -1.95953387430395    4.25517823069424   10.39081225383094
H        -2.41659056649650    3.28470735534285   10.51714742305624
C        -0.44267511823076    2.52335596479407   12.79186132338232
C        -1.49262681841493    1.61307854406666   12.82079970675408
H        -1.83231517457464    1.14253905544545   11.90879006156474
C        -2.09091155891183    1.30280013293030   14.02951735227690
H        -2.90393406892071    0.59320501187233   14.05700678263959
C        -1.65174218084619    1.89836168603695   15.20124946418404
H        -2.12270052983937    1.64834557230486   16.13937140237093
C        -0.61043035308639    2.81328911657259   15.17307624455968
H        -0.26937759643003    3.27608215755837   16.08625433496651
C        -0.00649363639309    3.12382825635644   13.97072427584800
H         0.82249959093647    3.82967029289514   13.92848167835827
C         0.22662771685092    1.72173354934572   10.06436892583906
C         0.41586407035900    0.39498128781305   10.44245662199837
H         0.57037436434001    0.15486235732043   11.48477782930286
C         0.39543400166978   -0.60702048025119    9.49149881143589
H         0.53637444997383   -1.63447864594445    9.79033710167440
C         0.19926708530494   -0.29166376196051    8.15617182959867
H         0.18558947434244   -1.07456438825190    7.41387093298031
C         0.02181835612062    1.02801749260780    7.77300124974838
H        -0.12998852078785    1.27337405918197    6.73284856883998
C         0.04310258662089    2.03521625518045    8.72026194452404
H        -0.09054214302515    3.06597749700978    8.42061004396313

