86
CSD_code = HOKMOJ | q = 0 | S = 0 | Stoichiometry = C42H36AuN2OP3S | MND = 2
Au        3.12151844290819    5.94628314935156   13.59467608214980
P         3.14651519537574    8.07283395570072   12.71166763352912
C         2.00591845751558    8.22207408234461   11.31448104469143
C         1.38102993274899    7.07826982711853   10.83612081409318
H         1.57096583326039    6.12913861269206   11.32041379513097
C         0.51525556021406    7.15752550712419    9.75973548747130
H         0.02927371189893    6.26433971235544    9.39729244066550
C         0.27096505198560    8.37924854579677    9.15657794623502
H        -0.40733646740136    8.44254579647130    8.31841469049007
C         0.89458613930504    9.52459453569651    9.62862654904920
H         0.70496918071362   10.47753252974291    9.15619426965251
C         1.75949601581899    9.45156802665109   10.70354106935136
H         2.24640472236841   10.34390084561278   11.07406244850130
C         2.84067520005216    9.63003657412402   13.60164045498027
C         1.52555818544311   10.06442364034936   13.75709032448568
H         0.71915798520130    9.46860267110488   13.35717699309199
C         1.25993678851564   11.23942677686822   14.43339612092609
H         0.23806065108816   11.56844841651933   14.55669950678159
C         2.29955829159622   11.99481458732796   14.95338904110346
H         2.08932278985482   12.91379560008608   15.48101572577419
C         3.60702814461477   11.57004511327036   14.79131898489944
H         4.42096374711588   12.16014874568517   15.18720655597784
C         3.88294444381510   10.39032392047688   14.12209396360318
H         4.90627139972342   10.06946918545262   14.00366137339989
C         4.78858587043173    8.31619874004876   11.97120164069683
C         5.92260396405715    8.05754560927289   12.76643066137291
N         5.81481038929657    7.84161993230144   14.11972672774334
H         6.59485470207864    7.38349377454236   14.56364777721882
H         4.90977041483619    7.55302299383086   14.46987162826289
C         7.18634391481904    8.11895800156412   12.17566915745805
H         8.05470415562628    7.91806289619934   12.78687941003058
C         7.33130005869629    8.42919888459043   10.84036026922554
H         8.31857697713045    8.47197548638721   10.40524291853682
C         6.21437213855984    8.67596393768289   10.05686532443478
H         6.32389437336218    8.91145691023201    9.00947818305320
C         4.95562868806336    8.60638564338194   10.62083944143996
H         4.08560227183675    8.77654905947984   10.00348851603484
S         3.22901825060340    3.72796125742935   14.28824057315569
P         1.27940490019767    4.01070765005477   14.75996674441013
N         0.89689666066738    5.09165387615957   15.86436934280740
P         1.02058021244604    6.70693198517171   15.63593787637848
O         0.83837445236588    7.27637817470767   14.27643317411354
C         0.29845324919215    4.17336587094175   13.23036191611867
C        -0.93133559099873    4.80995890060898   13.32185338109703
H        -1.23900947604333    5.22899709302579   14.27079277438095
C        -1.73476055672892    4.91119752948595   12.20175630448621
H        -2.68858023383279    5.41424089413875   12.26639447605501
C        -1.31907803692192    4.36201402108648   10.99938771367044
H        -1.95532096757796    4.43137135422396   10.12832997418089
C        -0.09149050400316    3.72509496657090   10.90962227265816
H         0.23399569039796    3.30048253418677    9.97044218054159
C         0.72357332643143    3.63380164945622   12.02323238198913
H         1.69217326649891    3.15511558608991   11.96023757838424
C         0.72189432213744    2.43536340833911   15.45082096496795
C         0.03517999697247    2.40919701144006   16.65533093207138
H        -0.15238467324511    3.33999074701236   17.17037316652797
C        -0.38762391699197    1.19839163584414   17.17342434934968
H        -0.91916475189486    1.17058514910429   18.11381629242785
C        -0.12930968785027    0.02254997946436   16.48805683601315
H        -0.45977409289923   -0.92212216522504   16.89530682961556
C         0.55490463419496    0.05196596109542   15.28263292021268
H         0.75700831287600   -0.86741852798431   14.75240774188064
C         0.98138236234964    1.25814137801728   14.76085968652906
H         1.52867655294301    1.29647002177913   13.82905014616824
C        -0.21955458551300    7.34452961632923   16.79043863898506
C        -0.20699430116103    6.93540499360530   18.11668596406045
H         0.55984569245638    6.24886841277469   18.44686937136662
C        -1.17196266489716    7.40613251938131   18.98648289287894
H        -1.16963985220073    7.09168587466522   20.02046352159432
C        -2.14491215149895    8.28442152362627   18.53270760714864
H        -2.89768410716084    8.65187204442891   19.21547321661927
C        -2.15732421589353    8.69063156264362   17.20862255468724
H        -2.91938665823019    9.37292838889423   16.85906827944580
C        -1.19310836673382    8.21878075925153   16.33533346330039
H        -1.18015482478608    8.51541636011124   15.29560593090907
C         2.58431486516583    7.24795068406036   16.42235149581425
C         3.58528199323656    6.36284087885837   16.79558507735926
H         3.44258468398256    5.30000686719883   16.65197339305492
C         4.75220773221729    6.84238042330733   17.36543460725280
H         5.53268373580494    6.15153354496628   17.65045030555957
C         4.91253387840566    8.20212989780044   17.57721771101959
H         5.82340832617604    8.57491615541134   18.02267718447348
C         3.89848978509605    9.08358101211400   17.23730228843417
H         4.01290685510321   10.14135622262805   17.42375690706244
C         2.73520060219475    8.60663222878331   16.66257103790482
H         1.92799255470717    9.27678985973913   16.39869504913726

