62
CSD_code = HOKREE | q = 0 | S = 0 | Stoichiometry = C25H27BI2N6Ru | MND = 8
Ru        3.06616212009640    3.13576291139502    2.12199353469069
I         5.00093782403841    2.45991643374118    0.21434295266016
I         1.31156088831644    1.09640905373761    5.36376106413876
N         4.90401524618655    2.26875422261049    4.34513619040137
N         4.23037033063673    1.83949304531771    3.27921310785517
N         5.20301153868149    4.62539529626759    3.63983284819757
N         4.49713212946082    4.64693203574694    2.50655079207740
N         3.32302287009723    4.02558882823266    5.03480080067395
N         2.41867950936202    3.96236679142334    4.05091296248577
B         4.80277879849775    3.71416332523361    4.80656292549510
H         5.45422960427064    3.91762142682855    5.76907984900483
C         1.33451774114270    1.74546647628993    2.30266621750620
C         1.98846070443597    1.54405360408890    1.07515152002969
H         2.61324045002828    0.65440442333696    1.00995184892628
C         1.38407260371474    1.91230338237477   -0.26742712787949
H         0.29748173923778    1.80781468294308   -0.20493061508869
H         1.73536150037234    1.18985107003774   -1.00655802101367
C         1.76798887909330    3.32303585003872   -0.74763417013945
H         2.58620093617967    3.24557811489705   -1.46414894912426
H         0.92551005453510    3.79066045358548   -1.27118534846587
C         2.19575976555363    4.23284348284759    0.37902775493879
H         2.87545116649209    5.01927297680587    0.05634723516231
C         1.40541167595065    4.46968941698778    1.48727227898867
H         1.52765219358133    5.43207033647385    1.98731558859603
C         0.02725772750130    3.84459501205640    1.61263507761425
H        -0.38131061608412    3.71253443924188    0.60800814260466
H        -0.64180518769254    4.54277897291396    2.12260378802790
C         0.01465138745334    2.49752303557510    2.35796421106217
H        -0.25352555508284    2.64924734919349    3.40632739047403
H        -0.76071289354641    1.84599557238939    1.93381868952357
C         1.41327892813871    0.63494787423522    3.27674617243298
C         1.40318742363718   -0.64834932047029    2.90937063521035
H         1.29695272533049   -0.85897026852625    1.85002732282033
C         1.45565115373654   -1.84100214662217    3.75398730131455
C         2.43815848144725   -2.02053016988854    4.72403313646603
H         3.20518584663531   -1.27232537917458    4.85783798186033
C         2.45988379798615   -3.16982567017761    5.49217455564785
H         3.22973145433287   -3.29768123879150    6.23880855620756
C         1.50236924074688   -4.15218625952464    5.30648410107697
H         1.51734849947033   -5.04561838498756    5.91262833430625
C         0.53075253372943   -3.99009569246105    4.33212258169097
H        -0.21337168587084   -4.75744044178584    4.17592110257311
C         0.51393293051216   -2.84942812961878    3.55343257897906
H        -0.24409408130434   -2.72309337349523    2.79298077703446
C         4.53109380831583    0.55686582004674    3.10661105729483
H         4.14587158333125   -0.02827904175157    2.29433150750395
C         5.41295708351265    0.14300271606751    4.10038854593334
H         5.83747660620300   -0.83134253799196    4.22516282075779
C         5.62290862655629    1.26833675618734    4.86783387663094
H         6.22885749562330    1.41833449242683    5.73751217025973
C         4.99142193964525    5.61777704130840    1.74754589318428
H         4.62298155862599    5.82879068169354    0.76266719229892
C         6.03913289465348    6.24913868783633    2.41098353349831
H         6.63564778204417    7.06294182659839    2.05568886192233
C         6.13662831811975    5.58439173814040    3.61414160109363
H         6.80311262156890    5.72806643058182    4.43972684213431
C         1.30399351903777    4.51605334296763    4.51949132017242
H         0.41077736267199    4.61939098979065    3.94333256720744
C         1.48568989420516    4.93045600885971    5.83409495218053
H         0.76638106428690    5.39854431624024    6.47257530109170
C         2.79087438742489    4.59826917857017    6.11922676808166
H         3.36756107313343    4.73163813110316    7.01103751170965

