41
CSD_code = HOKSOQ | q = 0 | S = 0 | Stoichiometry = C16H22ClNNi | MND = 7
Cl        6.23118425391275   -0.98614925495913   16.89448043466881
Ni        4.71806677349549    0.28542531016188   17.46284967198383
N         4.09074907741170    1.07866956653223   15.62295943228394
C         3.30948977524495    1.48656883832221   18.21608422475647
C         3.20565856742808    0.21365613851047   18.80822563459513
C         4.43799730160135   -0.06288307312031   19.46171321472803
C         5.15882316418466    1.21612441010072   19.58417958544847
C         6.29515934949382    1.58599387069768   20.28770524542536
C         6.70103849640372    2.91148843709298   20.23825781361875
C         6.00061396521951    3.85378736448728   19.49626719801718
C         4.87114788499907    3.50159257241873   18.77279481891672
C         4.44098474352559    2.18306733696577   18.81699413401125
C         2.40498159798384    2.07794991543392   17.17201611475414
C         3.23929666675557    2.26137859863704   15.89213001271307
C         5.16713067569600    1.45045329498256   14.70139861887220
C         3.29272518897386    0.01271994678661   15.00332254328338
C         4.75631325610270   -1.27535852904858   20.29101293972221
C         4.15145245977258   -1.08665267114565   21.68771300257054
C         4.24716052897005   -2.55990234513211   19.63936508770847
H         2.36811737644446   -0.46106276597086   18.71389327709737
H         6.85441170800239    0.86124081044589   20.86022775301536
H         7.57687597603739    3.21846465189714   20.79046541121277
H         6.34046053048871    4.87899249343957   19.48337936630670
H         4.33079785823827    4.24710034829064   18.20567677548398
H         1.55582887141063    1.41526186282135   16.99387185641192
H         2.01923379868272    3.04897233486684   17.49213679696337
H         2.59655362982275    2.46900929350503   15.02349995854873
H         3.90487389223311    3.11532621405151   16.03802523907355
H         5.79009423414038    0.57782134768911   14.51031634517239
H         5.79167804239980    2.22107639970010   15.15239694246556
H         4.76030739613808    1.82305872863411   13.75231755138820
H         2.88010433767512    0.34831073961507   14.04214635098347
H         3.92633080200308   -0.85863403160589   14.83561912569622
H         2.47070252796898   -0.27698702639614   15.65770591042774
H         5.84493678857919   -1.34702027109425   20.38560804251033
H         4.40386871429154   -1.93555560697627   22.31869091966987
H         4.53201461373474   -0.18001925722916   22.15312658550363
H         3.06768726632365   -1.01161723643378   21.62327834895235
H         4.60533131510267   -3.42783733667104   20.18763716677838
H         4.61351439744769   -2.61963944363503   18.61456224423548
H         3.15950219565952   -2.58739197666799   19.62824830402372

