106
CSD_code = HOKYEL | q = 0 | S = 0 | Stoichiometry = C36H49B18IrP2 | MND = 10
P        12.43903237516384   12.55641481332021    9.57355233468971
C        12.74545345964595   14.15998573422577    8.71648488666214
C        12.99980647960692   15.26921627295960    9.51601989642387
H        13.06045019074216   15.12105842380112   10.58335040413143
C        13.18969290401712   16.51735026476853    8.95187496813538
H        13.39007848779578   17.36912684200853    9.58434094864474
C        13.12867547893637   16.67729455754162    7.57690538266110
H        13.27977240403282   17.65023582680372    7.13294354120482
C        12.87729497236660   15.57949314105233    6.77285186069702
H        12.83074594896351   15.69471289835840    5.69950398627051
C        12.68459673438175   14.33011510903716    7.33756306858249
H        12.50179483055753   13.48567343483442    6.68933835026392
C        12.67606664019082   11.40613559376868    8.18089856009152
C        13.88025206858720   11.46593584495040    7.48241555269559
H        14.59620249406249   12.23213470081178    7.73890124386797
C        14.15178676271424   10.56341696421036    6.47221283708936
H        15.08751900545186   10.62002848330137    5.93549680549638
C        13.22803470727149    9.58033776158252    6.15254201491670
H        13.44187484095533    8.87080219889646    5.36685040307040
C        12.03278938363664    9.50831961163874    6.84748425340448
H        11.31330097550612    8.73999803558088    6.60633902821689
C        11.75923278093867   10.41218096479585    7.85875443330598
H        10.82840708503538   10.34143085778956    8.40034835711649
C        10.60144173511566   12.69037639407041    9.62264126546936
C         9.84685371228753   12.89489904365836    8.47223871734364
H        10.33744115691709   12.97098003717681    7.51356695795970
C         8.46942930080269   12.99922234265995    8.54539796762166
H         7.89339705856015   13.15579862886178    7.64497521422516
C         7.82796384720059   12.90215842399069    9.76924337354929
H         6.75216322696560   12.98107709939909    9.82376107348133
C         8.57226601648733   12.70372771863438   10.91995638200224
H         8.07460732109805   12.62534983665770   11.87527659333233
C         9.95018739445993   12.60027783478757   10.84573819665422
H        10.54195696061842   12.44816371280327   11.73447856968217
P        14.29970397574313   12.99971634564762   15.17249004163621
C        13.83245609027211   11.73219466476676   16.40197770930489
C        12.59722124239538   11.69860460217118   17.03585756978705
H        11.85483499930213   12.45038335533182   16.81417859380842
C        12.31135906778949   10.70281211673827   17.95418161019205
H        11.34461908887493   10.68061498284033   18.43484630007305
C        13.25707549724574    9.73878957041606   18.25721089280504
H        13.02995966162094    8.96350120946071   18.97326593581097
C        14.49420986500474    9.76818211337067   17.63402817332927
H        15.23370137388643    9.01593114247372   17.86363933524855
C        14.77614478622369   10.75320270828699   16.70761087539455
H        15.73507395385279   10.76724393909296   16.21112820547532
C        15.62875484492096   13.90971261965763   16.04417961100609
C        16.02751800024758   13.61335361351511   17.34304772905755
H        15.53607274800538   12.82809608192899   17.89764284800563
C        17.05375135612293   14.32357683403579   17.94233344426319
H        17.35335034568205   14.07990344663673   18.95097007263252
C        17.69180499021050   15.34246723216417   17.25614257669821
H        18.49366769616772   15.89249479415180   17.72533730026264
C        17.29138211922998   15.65525548042283   15.96719656726696
H        17.77846110949859   16.45403303934266   15.42841113717413
C        16.26892582589323   14.94535757692348   15.36524405788174
H        15.95752789212062   15.19125910232306   14.36292442743516
C        12.90766741034097   14.18219761677267   15.20400964962149
C        11.68726454938307   13.77819923669613   14.66722547030599
H        11.57910162008202   12.77352447688452   14.29352790693915
C        10.61404362336829   14.64808288094666   14.62350691053673
H         9.67591502617748   14.32317313633612   14.20084063725078
C        10.74548488201560   15.93613328415998   15.11572379614402
H         9.91030657790288   16.61909298471663   15.07893592951209
C        11.95149892246007   16.34347186965277   15.65953614367715
H        12.05752907190779   17.34393640878541   16.05197776087636
C        13.02734745700656   15.47312174589864   15.70333059222564
H        13.96078353542556   15.80450062320736   16.13263639551550
Ir       13.60419843640510   12.32716656110146   11.66180872624899
H        12.15141150686741   11.13108582617795   13.24923956936636
H        12.68495244616243   13.44804815865226   12.17300759537076
B        14.14676450140310   10.31596911308249   11.37605854034038
B        14.96868894733542   13.68729035828460   12.35514930373643
H        14.80668590962475   14.84625653560902   12.47170326783709
B        14.52732278062707   10.68089190058637   13.03374558391767
H        14.62536676613979    8.71592946070963   14.22912777085026
B        15.36573854546903   11.12581850651518   10.58189293438133
H        15.58010652460986   10.79978412107094    9.45841695071959
B        15.60771894101008   12.79103090200675   10.98862199205781
H        15.77829884228683   13.49821279948922   10.06032909287093
B        14.82160062865654   12.38557912778915   13.46516971585062
B        15.82727891451320   10.11152674074124   12.02550148269972
H        16.34329590175665    9.04006336537869   12.02359700982792
B        16.39094862600266   12.87295945641815   12.65847717032717
H        17.29804056704384   13.52117247760252   13.05854599718477
B        16.15381944427300   11.24351901949239   13.30746558188849
H        16.82764282890872   10.91549642619642   14.23233674691577
B        16.73732921836903   11.50748482734549   11.60747482145313
H        17.85878803206341   11.43886934580814   11.23086977945172
B        12.52714046633277    9.60369242181469   11.30015801329594
H        11.67210558696278   10.15932120883362   10.69047251126051
B        12.93205862769318   10.32092230305507   12.86540132103183
B        12.19310564619940    8.72523889606113   12.82463234154838
H        11.10533842137445    8.68362868737721   13.29339660577492
B        12.50871936993818    7.81149189806595   11.30513666396350
H        11.61147586921313    7.24149640698547   10.78896499274475
B        13.51516429563510    9.10070061386130   14.03858892676413
H        12.99511309264085    9.22672120798263   15.10494617399631
B        13.19955617074749    7.37299381077780   12.89715796020769
H        12.96224468466123    6.40505738488388   13.52777108196996
H        14.51388667703763    7.28821389102210   12.55357588782484
B        14.11411923702263    7.19159504568603   11.34174585894704
H        14.46033803943425    6.16215374416009   10.87796997977659
H        14.82458947768294    8.12446593710584   10.81204781410704
B        13.75144532735458    8.77690187825888   10.43131854908698
H        13.79401275386719    8.78889938997687    9.24933204830619

