53
CSD_code = HOKYAH | q = 0 | S = 0 | Stoichiometry = C26H22N2NiO2 | MND = 4
Ni        8.16045848946063    2.10822904493119    8.33404800046492
O         9.44937261167429    0.78797043873141    8.21115349469888
O         7.79534696102040    1.81672843545890    6.54460262777289
N         8.48233233508931    2.37214083819089   10.15542864265688
N         6.82003552672515    3.39971536175663    8.48423033148452
C        12.86291327277891   -2.76281828207151    7.90114487668712
C        13.02742605310164   -2.14936422756863    9.13240109510849
C        12.13121554813757   -1.18637568587727    9.55845363321954
C        11.05430217412395   -0.82662660348440    8.75197034652528
C        10.90763839390643   -1.43524885471058    7.50613002238016
C        11.80242312124581   -2.40009073895487    7.08660384077317
C        10.06229757730156    0.20069008006185    9.15413463538092
C         9.80911841266824    0.42676938513620   10.51091399389934
C         9.00514129477027    1.46832175825456   10.97714441628112
C         8.73394301348482    1.47414375346972   12.46035362459893
C         7.92784850753437    3.58492243955329   10.56559685326797
C         8.30825842836918    4.31672648519537   11.68647443549428
C         7.76235534383715    5.56746923262751   11.92086507545305
C         6.86848694954533    6.11998258747785   11.02186151618061
C         6.50938338258571    5.42848022888462    9.87727287962879
C         7.01096899074189    4.15158523741029    9.64373160891592
C         5.74799503146508    3.48138753330433    7.70353661858756
C         4.45905528583821    4.11183636802636    8.16692686549698
C         5.73407374474601    2.94869809581665    6.41336766640275
C         6.80023503464522    2.22394469640621    5.87088927921046
C         6.77189491502570    1.83199101936038    4.44030960424752
C         6.07591624909034    2.55737573013671    3.47617782469730
C         6.08363000991939    2.14529767784564    2.15625181228677
C         6.78399269353327    1.01009979210294    1.78148054097874
C         7.49185023902313    0.29173190915535    2.73180595228452
C         7.49048338367577    0.70228982127541    4.05048130248601
H        13.56447591832728   -3.51675926337278    7.57521317936022
H        13.86237622013243   -2.42064689687698    9.76218531748797
H        12.28407824736412   -0.69858316722000   10.50915342159862
H        10.07876531602806   -1.13644657327450    6.88277911356729
H        11.67628548283748   -2.87062324591681    6.12239650769676
H        10.23489440510061   -0.24267585843641   11.23955809240737
H         8.60045695735127    0.44686589357209   12.79436287286910
H         7.83669855201915    2.04036999112238   12.69661682192671
H         9.57489621873429    1.89135424174075   13.01238326931971
H         9.08092837285196    3.95406332543130   12.34295985875423
H         8.07165617601233    6.12697522126077   12.79084001463952
H         6.47720124200177    7.11252763228747   11.18710386573681
H         5.89747191964653    5.92112558880194    9.14071445104203
H         3.62728955804834    3.51207380859821    7.80201386020176
H         4.34305192832047    5.11505902857130    7.75949661910750
H         4.40886838741550    4.15976377059398    9.25160615973310
H         4.84523440346888    3.09148416211608    5.82186781170803
H         5.54621713318778    3.45694648445820    3.75078686355230
H         5.54328395447343    2.71479292098293    1.41373226893363
H         6.78317636331875    0.69104738270365    0.74946529780035
H         8.04659928228088   -0.58846423832095    2.44100650021188
H         8.04050098601333    0.15824623327335    4.80321441479563

