49
CSD_code = HOLBEP | q = -1 | S = 0 | Stoichiometry = C18H16MnN4O10(1-) | MND = 6
Mn        5.32784840565064   -0.74608005260561    4.49421112626868
O         5.02931163605060   -1.92690197634562    5.97864166074741
O         3.54425524491677   -1.19359565271057    3.91092209627596
O         2.31877048031750   -2.68234745250049    2.81123940724045
O         3.50963300429244   -7.86243734751609    6.77386031910517
O         4.79366566315262   -8.04021774506911    5.05454759229913
N         5.86377478520027   -2.30281634196011    3.25666071891711
N         4.23335437504717   -7.37262209330201    5.91587334171446
C         4.87067002010343   -3.20172136038039    5.93705109607275
C         4.03266068496873   -3.83039473715397    6.89621681831403
C         3.81828516322887   -5.18008890373490    6.89145504839101
C         4.44010246320501   -5.97864729828815    5.92628646733460
C         5.28014326602092   -5.39220903383701    4.97532672380724
C         5.51089978714271   -4.03992231202922    4.97282230687254
C         6.46724499674246   -3.42305581967752    3.98832564532046
C         4.69767947287104   -2.69721050975914    2.45174083245263
C         3.38173299319664   -2.17575162306162    3.11177802437851
H         3.55376739293092   -3.19669500095885    7.62718427664397
H         3.17230145850111   -5.65067697372444    7.61726634444789
H         5.75211162364185   -6.03733872446819    4.24732917365250
H         6.81669546904055   -4.19975242968879    3.29201278507933
H         7.33029740569497   -3.01764593871145    4.53128700646132
H         6.58312229549107   -1.91954160860087    2.64245332544754
H         4.63313297344935   -3.78221387283100    2.33103663490747
H         4.74686772269244   -2.23215033901770    1.46359039792484
O         5.62630921647341    0.43471785208045    3.00971902116471
C         5.78483482250984    1.70954749899641    3.05122401964344
C         6.62270719701934    2.33828743037287    2.09199009389785
C         6.83692996543576    3.68800177436632    2.09674402763829
C         6.21502580539125    4.48650868700193    3.06189525924673
N         6.42167256704544    5.88050162738574    3.07230771872670
O         7.14569571380653    6.37034278124836    2.21456859274004
O         5.86110766570210    6.54808196118208    3.93348101477620
C         5.37501573417131    3.90001274837420    4.01284675185009
C         5.14442192915652    2.54770715542876    4.01537369803376
C         4.18816712609251    1.93069535122376    4.99981706991963
N         4.79191201875924    0.81071828567341    5.73163713519551
O         7.11136153446990   -0.29841390595783    5.07727753183802
C         7.27394700246271    0.68398851074455    5.87609667084651
O         8.33688884867632    1.19115759940557    6.17580570083967
C         5.95807090654642    1.20548479498226    6.53625288961534
H         4.07270512087087    0.42752402391127    6.34605638075742
H         6.02242114499472    2.29052647917967    6.65672031064355
H         5.90920095782305    0.74061340894467    7.52449841875637
H         3.83838409962668    2.70734371596309    5.69598755111739
H         3.32528283220847    1.52499648510568    4.45684477295947
H         4.90299547330054    4.54510175735146    4.74083827917673
H         7.48293540019262    4.15864779101709    1.37097474221787
H         7.10167813371295    1.70464133395007    1.36102317832205

