55
CSD_code = HOLBIT | q = -1 | S = 0 | Stoichiometry = C20H20MnN4O10(1-) | MND = 6
Mn        0.00031898150770    0.00005126721944   -0.00007068917279
O         1.04853836202643   -0.12777499981959    1.60737211820063
O        -1.24523680321884   -1.20259873665265    0.87165894071132
O        -1.56373522653518   -3.33886670686022    1.39392768717984
O         2.83101373469060   -5.77158741877854    3.38968815694053
O         2.35115966615361   -4.90648542431605    5.30165470271618
N         0.81061851181817   -1.80483273292902   -0.77123071626076
N         2.43348873313950   -4.84172570596217    4.08130225385445
C         1.38394183781717   -1.23371801322656    2.17307894613657
C         1.30722064433146   -1.37148579134832    3.58274108419419
C         1.63658816159232   -2.54498938193237    4.20266359737860
C         2.07446037086407   -3.63595918195371    3.44566779707339
C         2.17812535114928   -3.52427579582394    2.05617000344816
C         1.85448540758530   -2.35201425692251    1.42303722678002
C         2.04340136651492   -2.17528729829809   -0.05570626022541
C        -0.22725047281357   -2.82039073900664   -0.54330918963159
C        -1.07895044925943   -2.45824602971126    0.70994198430610
C         1.13824614927881   -1.71658915803415   -2.19522428517004
H         0.95660807895866   -0.52551688563126    4.15459335274728
H         1.56293337922323   -2.65425693062702    5.27427158036652
H         2.52912908198865   -4.38176580226463    1.49949651792368
H         2.76366594219822   -1.36497382188003   -0.22390325642801
H         2.45072546319964   -3.10631225505705   -0.47992303845408
H         0.19330810508677   -3.82717295080833   -0.44111278338906
H        -0.92804968310821   -2.80790630806516   -1.38273729832824
H         1.87614723692591   -0.92865398855937   -2.34373883833471
H         0.24277977628597   -1.45646514351973   -2.75517416513388
H         1.53698385894418   -2.67025248948329   -2.56589721817547
O        -1.04811051422148    0.12781379016368   -1.60740862327687
C        -1.38386441944377    1.23369505454775   -2.17301766640747
C        -1.30759933164195    1.37147934913542   -3.58270597549939
C        -1.63753429187627    2.54486787981254   -4.20254812744254
C        -2.07556302400586    3.63571091372120   -3.44546159854248
N        -2.43539689215305    4.84127506200783   -4.08102778426851
O        -2.83223764335292    5.77130614253683   -3.38925924198199
O        -2.35282509712098    4.90625384107931   -5.30136128408912
C        -2.17863179973756    3.52405909784140   -2.05592366671858
C        -1.85445199434415    2.35190642576234   -1.42286388552873
C        -2.04295277134098    2.17519905589432    0.05593318064669
N        -0.80992838485515    1.80496460936901    0.77115342119197
O         1.24583936233118    1.20270881524170   -0.87181488143386
C         1.07902177870545    2.45836944976924   -0.71065809117211
O         1.56387466107645    3.33890511039532   -1.39471127938094
C         0.22776465053874    2.82061239044466    0.54287107661475
C        -1.13716871249827    1.71686430612262    2.19524904460536
H        -1.87495732313873    0.92888131917040    2.34405256699043
H        -0.24152948496335    1.45692316125719    2.75501475728430
H        -1.53593588025194    2.67051817613776    2.56591295542970
H        -0.19291269741257    3.82734090242833    0.44065662634295
H         0.92878387872410    2.80828465638170    1.38212245897040
H        -2.76304581138472    1.36477657343206    0.22433873539496
H        -2.45034168548945    3.10617329913088    0.48020674118012
H        -2.52969899972930    4.38145105984900   -1.49914031713159
H        -1.56427043577729    2.65413130543868   -5.27417969521984
H        -0.95699270298150    0.52558093318141   -4.15466765781082

