83
CSD_code = HOLBUF | q = 0 | S = 0 | Stoichiometry = C29H44B2FeO7 | MND = 7
Fe        1.67629304085438   13.80723274658336   14.75995290195831
O         4.51148742810603   13.77820177693530   15.36957972101491
O         1.66207625161070   15.25460657027736   12.23054475605102
O         1.58764678648819   16.12358359605073   16.50329304274816
O         3.39355398700834   11.33820992994821   11.94985086817704
O         4.10232141699759   10.94935574458406   14.06915633734320
O        -1.26468179284893   15.73154704500908   15.41100366905765
O        -2.48521067077025   14.81876013354601   13.73503466869228
B         3.06287147894521   11.36375117782211   13.27761824506484
B        -1.41033233947299   14.66537454972609   14.56557553943302
C         3.38197400448191   13.73709428544077   15.16911791780570
C         1.69087720899621   14.67808305970206   13.21843398294158
C         1.54665065860277   15.17405044107872   15.86343408764214
C         1.69551257440847   11.93183450440374   13.76660118289543
H         0.98096070926170   11.96876245713324   12.94539748474073
C         1.13871484688128   11.72972875896418   15.08872041763493
C         0.03933731967359   12.55991552833966   15.43675582089740
C        -0.38294161320860   13.49582204376142   14.40965595000870
H        -0.52849787082379   13.03773632924015   13.43028999350396
C         4.79975015415144   11.11910472131866   11.83594945915860
C         5.17797539615319   10.51692410005763   13.23558202761796
C         5.43767800347633   12.49268737059125   11.59330093515420
H         5.22699167433787   13.15540073076175   12.42940624431672
H         4.99073258703006   12.92692623723596   10.70202432868775
H         6.51041377765498   12.40938288934912   11.44803732960541
C         5.08550191658631   10.21097361804810   10.64304943035529
H         4.50409766376441    9.29620394102963   10.69676168527520
H         6.14366430290317    9.96691309870939   10.60308018581855
H         4.80947133383530   10.73239894942155    9.73007846857772
C         6.49735755169157   11.01635604254569   13.81787016276142
H         6.45545510399323   12.08263362995572   14.01412319843214
H         7.31583946062785   10.80130949772376   13.13633753799918
H         6.68197911254349   10.50874953648609   14.76150724749747
C         5.16514632384159    8.98293411490459   13.24745642938711
H         4.22261255965734    8.61116605533955   12.85241290468486
H         5.25774998086968    8.64358497510816   14.27691637082600
H         5.99019790788550    8.58014132323719   12.66792192334992
C         1.75476332435866   10.68291352854041   15.99144847947610
H         2.58958394566199   10.25411053868483   15.43805144809518
C         0.79090377584639    9.52369411893613   16.35848537926178
H        -0.23911879820877    9.74675807240903   16.08293585922130
H         1.08015423727895    8.62537929549088   15.81256967344735
C         0.94587066164906    9.30081556594472   17.86982504293228
H         0.14278924760665    9.79608755924007   18.41897078172753
H         0.91873709619994    8.24321817586527   18.13071150517344
C         2.28490096256071    9.94793609834800   18.22152586448336
H         3.10112962372307    9.27175870831043   17.96270984750287
H         2.36386277934811   10.19235194294161   19.28035815401674
C         2.33444916544611   11.18237367877504   17.32565161815181
H         3.34694389388451   11.55740265848582   17.18590058963987
H         1.73699764880730   11.98757302617867   17.74785953539699
C        -0.68903872727446   12.44329576515420   16.75359026769677
H        -0.31927895457479   11.57446716328150   17.29447597610908
C        -0.60151643827282   13.64753132310811   17.69845764911938
H         0.37671011407055   13.72967026328981   18.17239075421350
H        -0.78520089766546   14.56116475767367   17.14061182776028
C        -1.71860334630085   13.39865024155119   18.71756375168306
H        -1.32707505123810   12.86590988175020   19.58557072561349
H        -2.14628646565286   14.33476810481682   19.07390294757523
C        -2.76629991520708   12.53091973541367   17.99277013937671
H        -3.73802097189248   13.02215941719535   17.94920143031161
H        -2.90372172458953   11.58590333469736   18.52016618625581
C        -2.20605610204797   12.27829121133928   16.58884523716030
H        -2.57583761516597   13.02446427980676   15.88522391273536
H        -2.47662545937378   11.29319950524927   16.20746109519044
C        -2.37908398001023   16.61052085321955   15.25605769848475
C        -3.01395053510870   16.13655312289984   13.89811114147727
C        -1.88187240003509   18.05360509013836   15.26911366329822
H        -1.09547153365061   18.20257478503465   14.53639443128558
H        -1.46928920985483   18.27307029783164   16.25078986907075
H        -2.70219655601478   18.73770511788869   15.06935988031718
C        -3.30158165958366   16.38638166044788   16.46114073491862
H        -3.64271282834330   15.35476171781868   16.49209028442349
H        -4.15726139225617   17.05406280574385   16.42835890638991
H        -2.73582985713241   16.58201469767695   17.36938658878929
C        -4.53948339267127   16.07818094974644   13.88424251411293
H        -4.91424247197950   15.37103395400453   14.61745537928236
H        -4.86947866011813   15.75003309440019   12.90172015022327
H        -4.95436399527252   17.06229359605598   14.08423827844511
C        -2.52874171421002   16.95557769509962   12.69619252913908
H        -1.44194949339756   16.97525864024097   12.66993304798224
H        -2.91551304703979   17.96954896655619   12.72936422959264
H        -2.87742151860203   16.47261349236106   11.78618253620176

