43
CSD_code = HOLDOD | q = 0 | S = 0 | Stoichiometry = C15H17ClN3O5ReS | MND = 6
Re        8.65762532132965    0.82088506923469    1.06452872851383
Cl        8.40549466784721    1.53538324740395    3.30778746147905
S         6.37344421278911   -0.30314368375821    1.44187429699321
O         9.48962709465449   -2.15662903590266    5.14587697233495
N         6.06703315759299   -1.87159316153970    3.52625673280834
H         6.43062915463805   -2.49085463198142    4.23498550298997
C         6.92381801672578   -1.28451215539279    2.67771265936505
O        13.19412832927897   -5.01329290394522    5.60922306915373
N         8.23207628254981   -1.59630303548012    2.85086610873694
H         8.49868373839982   -2.09868640239799    3.70671315567064
C        10.45331937744838   -1.30805912755525    2.38851168445172
H        11.15546957372855   -0.82283126429337    1.71966435531123
N         9.22705705335549   -0.98349669709562    2.16339362140514
C        11.08443193570923   -2.25437303325562    3.29783581758818
C        10.65653323123505   -2.66010253967757    4.57805816531129
C        11.37792415990737   -3.57773881838137    5.32930542089896
C        12.56595532509198   -4.11889820858070    4.81122423659959
C        13.02147235828765   -3.70373847540199    3.56426981570116
H        13.94079225389263   -4.08710446435939    3.15282242077120
C        12.29808692887768   -2.78193733443089    2.84139770677426
H        12.66547125770276   -2.46996442544795    1.87547772685649
C         4.64174779279405   -1.66985513732662    3.46879889486122
H         4.20944325728633   -1.88136529286976    4.44343329618697
H         4.18179532727920   -2.31846827816005    2.71848625318418
H         4.43556700170932   -0.63407288087323    3.19654556127624
C         9.61281676780064   -0.83200625121297    5.66662391071124
H        10.48947580205894   -0.75529625114250    6.31172056148325
H         8.71114553828519   -0.65402165748823    6.24977209504619
H         9.67496053919434   -0.08419414010165    4.87133666429159
C        10.92713301788656   -4.00889694580406    6.69036018357994
H        10.83216875336949   -5.09275417946480    6.71904797092267
H         9.97373084840236   -3.55705940857978    6.94594687602163
H        11.67238190078213   -3.72828335130717    7.43309941670727
C        14.40269649214354   -5.58706246282148    5.16771510512228
H        14.26337157730543   -6.15320425024297    4.24182023335665
H        14.71152647132176   -6.26523368578586    5.96139763515979
H        15.17649988701592   -4.82799533524832    5.01933359715083
O        11.50077963370357    2.02322442274728    0.93530286052481
C        10.44018001832590    1.58101307072750    0.95692210704350
O         7.31685121194374    3.45200706782105    0.17448186126015
C         7.85839898059620    2.47974749380550    0.43157251094552
O         8.78504329018770   -0.50966373816883   -1.71714656560342
C         8.75101245958053    0.00853227374025   -0.69385668895290

