60
CSD_code = HOLFEV | q = 0 | S = 0 | Stoichiometry = C25H23N4O6ReS | MND = 6
S         8.63771583178926    1.47580855711344   11.54966262635188
Re        9.41087039826598   -0.26261484419039    9.91867707241179
O         5.98459546558818   -3.73193086143730    8.29026997162114
O         9.75011676445871   -6.52397073046785    7.69206941014185
O         4.46178027142565    1.84093117487091    8.40930747594403
H         4.34686168502452    1.65833725667138    9.35127242383546
O        11.51970441271926    1.72453964381750    8.84395744324930
O        11.29571820367889   -1.30443403631641   12.13111210086925
O        10.03875700475066   -2.28772415148769    7.66311864317260
N         6.54508033441182    1.25897407408063   13.05458069539189
H         6.94667217760384    2.15542922566907   13.29999689549846
N         6.90085083126728   -0.60312692350082   11.73024818009505
N         7.68421469435590   -1.28320003031864   10.85421182461735
N         7.87113351809160    0.60345526785168    8.47858441631189
C         7.27354961874157    0.57344120252021   12.13526226719302
C         7.17712211793453   -2.41242056541074   10.48579376346876
H         6.15982278073342   -2.64608699645904   10.79919308639076
C         7.88568680290686   -3.43865437086650    9.74548161245241
C         7.25993261784656   -4.10937083754833    8.68036258878317
C         7.90280335224467   -5.13399687346163    8.00434602642700
C         9.19394070721567   -5.51697546680398    8.41053305230213
C         9.80590942129992   -4.87807067723896    9.48175414653908
H        10.78695528561922   -5.17070176538723    9.81763017330558
C         9.15857828563419   -3.84813729564813   10.13557871092278
H         9.62736165915600   -3.37797061162783   10.98679328027598
C         5.40739193705790    0.90165338462335   13.76710601823836
C         4.90503851754775    1.82965301440000   14.68114743178739
H         5.41404992581391    2.77444657087257   14.81455860482651
C         3.77042045468429    1.54500853233786   15.41379783390524
H         3.39506272198618    2.27190170575723   16.11879323953828
C         3.11734992226785    0.33436118854469   15.24778164780729
H         2.23074024227872    0.11240342441510   15.82181732750407
C         3.61383609020111   -0.58829687076538   14.34302353035083
H         3.11358279222113   -1.53627356326218   14.21003159126659
C         4.74932301099800   -0.31448852981389   13.60318274807947
H         5.14226816623655   -1.03414377503137   12.90532203558046
C         6.64511133427017    0.95358451835556    8.85729837435150
H         6.36891499669342    0.80230943309602    9.89423893803634
C         5.69984239001577    1.50566942717865    7.99626658616572
C         6.05629273031913    1.70784641298500    6.66538699953983
H         5.34278391062498    2.13685500981786    5.98091741565663
C         7.33207246084703    1.34681229984416    6.27643465175471
H         7.65574915147072    1.48792568529172    5.25797444279060
C         8.20507098045874    0.80112930004929    7.20124564275429
H         9.20502577893386    0.51312382039529    6.90822971660893
C        10.75969425401290    0.94969850163112    9.20809430362140
C        10.62163808417412   -0.94794439067622   11.27519065524753
C         9.79409336337617   -1.60827738767340    8.56157909345829
C         5.94756356735777   -2.53426632430229    7.54864810084053
H         4.89953058068958   -2.34345383032964    7.32276523020859
H         6.51417961186149   -2.62596297461021    6.61512269502826
H         6.35602408943857   -1.69428593911452    8.12144012427080
C         7.25809706756315   -5.84415918496331    6.85537765357971
H         7.24334390258487   -6.91545575042651    7.04516519708558
H         7.83528808123211   -5.68089565254269    5.94642501357413
H         6.24173675181875   -5.48949467028286    6.71346213455596
C        11.06609109485108   -6.92261017435766    7.99515634813730
H        11.31150557210532   -7.69822928838962    7.27128444477190
H        11.13832651828106   -7.33642449072715    9.00583684665595
H        11.76982570296649   -6.09154879676063    7.88999949485713

