37
CSD_code = HOLHUN | q = 0 | S = 0 | Stoichiometry = C12H19HgI2N3 | MND = 5
Hg       -2.58538463839994    4.59421995918833    9.50897000233273
I        -3.00267069403666    3.65433108663957    7.08790054556745
I        -3.40484698588900    5.78786466109955   11.68508640800336
N        -1.14100109686424    6.55028803953893    8.59529373671923
C         0.14771393658805    6.25052651475652    8.40149758651762
C        -0.83144690795877    8.58376128668808    7.39364431785311
H        -1.26462942618806    9.49581044306311    7.01577505677986
C         1.00241773864782    7.09246079633922    7.69229010379348
H         2.03635920694474    6.81717639351890    7.54991875837266
C         0.50169621489636    8.27686787640621    7.17831199889234
H         1.14056879770714    8.94643667200998    6.62212358132387
C        -1.61132813002730    7.68373778171800    8.10852223972684
H        -2.65841528191744    7.88580698983198    8.29696360483913
C         0.64681566573917    5.00345171339862    8.96952732087203
H         1.70415489955917    4.77929292301684    8.78700544181475
N        -0.09165593145844    4.23491227294251    9.64891228367311
C        -0.55066474952135    1.87042285256307   10.01837474987761
H        -0.67909536430508    1.72368628602602    8.94145802339495
H        -0.09163709283651    0.95744444058787   10.42496668426068
C         0.42922391188278    3.03151006283414   10.21814117330403
H         0.57035141008444    3.21447971991627   11.28841059864936
H         1.40411024216845    2.76244865763871    9.78498799502512
N        -1.87398160132761    2.11681839317552   10.59182207792641
C        -2.79595633059152    1.06875495157846   10.12958049596947
H        -2.48340051903248    0.08067278208093   10.49780362275785
H        -2.73252299577338    1.04352026202878    9.03817704477087
C        -1.85179788608088    2.23525437644577   12.05714690286795
H        -2.87059078824867    2.45685833863770   12.37812814838845
H        -1.24659330399627    3.10784536454734   12.31443266368147
C        -1.33931413567453    1.02834179163067   12.84461782276850
H        -1.93241836823543    0.13958853962013   12.64446786127908
H        -1.41657783017109    1.25214824214146   13.90551611218422
H        -0.29670032023635    0.81144107854384   12.62236381039647
C        -4.24614885412783    1.32619951182500   10.51650044192300
H        -4.42578998905543    1.15646540613459   11.57483192745737
H        -4.89023057805964    0.65852405201705    9.94979998390861
H        -4.52871222424028    2.35352947983531   10.27502887205021

