76
CSD_code = HOLLOL | q = 0 | S = 0 | Stoichiometry = C31H41ClN2Ti | MND = 10
Ti        8.79158831674011    7.00998294626666    6.84171804155002
Cl        9.26527883946260    4.87391545993454    7.11003833959842
N         7.15367039335502    7.05999529118538    7.71906615677579
N         9.55357360184850    7.60758869100763    8.43055146709487
C         7.44815521889916    6.87068833680872    9.04972429947042
H         6.67198176520812    6.55146818856724    9.74044080009018
C         8.72658721087264    7.15191643098035    9.42614899227584
C         5.81020080294549    7.20720041981782    7.33356270627332
C         5.19958662474779    6.23686922521585    6.51428922688484
C         3.86515364275403    6.38614029987487    6.17051293449346
H         3.38349456528552    5.64101142371656    5.55774375755040
C         3.13060516999005    7.47146554618300    6.61205557702288
H         2.08970852838676    7.56741567972930    6.34084423300969
C         3.73520082486711    8.43093051471057    7.39840553961347
H         3.15926291485157    9.28023302976450    7.73379989563550
C         5.06911631804440    8.32099437021791    7.76630465914825
C         5.70601469124704    9.42105424502119    8.58486005598252
H         6.76303785740720    9.17834957956321    8.73113892344799
C         5.62674555181901   10.75305165393953    7.83388965303857
H         6.07086406098048   10.65518733396685    6.84517796459021
H         6.16172635531951   11.52572992252835    8.38182387224164
H         4.59556812767250   11.07557297195826    7.71397072921400
C         5.98532904857092    5.02094586467734    6.08053423133185
H         7.03872273163011    5.31896741191214    5.96882919348101
C         5.91874549929230    3.95989418185693    7.18536133214515
H         6.35961799221393    4.34433944842555    8.10436251819705
H         6.47652216578524    3.07530338548572    6.88678337600109
H         4.88546312304127    3.67745944795542    7.38071037217491
C         5.52444067229510    4.43378322810136    4.74679892565050
H         4.56256631396732    3.93518764415886    4.84262941906665
H         6.24782601417879    3.69508074695135    4.40770156994682
H         5.44302214837627    5.21064610751255    3.98875568803839
C         5.05258214235646    9.53587547536631    9.96344068214838
H         5.55201056143649   10.30157333718002   10.55306976556050
H         5.12448733450490    8.59101267365372   10.49696836751030
H         4.00163765621498    9.80073670727595    9.87623027843152
C        10.76319074892575    8.24904450462282    8.76773822593618
C        11.92865705595178    7.50785376165938    9.01938218108375
C        13.11192308613526    8.18451357359266    9.28356281363728
H        14.01789749858856    7.62378157505277    9.45515172876221
C        13.14875313761207    9.56372530387915    9.34048931588798
H        14.07719522952081   10.07324410822022    9.55231737185080
C        11.98919650665024   10.28938167423108    9.14225185740629
H        12.01917416956051   11.36543555253534    9.21724486605266
C        10.79194919391116    9.65271625122191    8.85345212456380
C        11.91385280430288    5.99753532580816    8.97925854329165
H        10.87317346506903    5.65601902335255    8.94906723419619
C        12.56646874989633    5.38479022437719   10.21957508873298
H        13.63645715842311    5.57671886164885   10.24316542637404
H        12.41639223719361    4.30754984727065   10.21757918309558
H        12.12297200300410    5.79318117163350   11.12546350415729
C        12.60659330124836    5.51353016795782    7.70242876424009
H        13.64838156760283    5.82789436267352    7.68440691394214
H        12.10020492415362    5.92611974215629    6.82922229498418
H        12.56499462944781    4.42851294055734    7.64247308304094
C         9.51448505663955   10.44472704566546    8.69605309465163
H         8.78348941706043    9.79947553867695    8.18899991180667
C         9.69585943714481   11.71145459553236    7.85918651140274
H        10.28176478421606   12.45678689753493    8.39122686374824
H         8.72501920010601   12.14925613392891    7.63566345846667
H        10.19607440104890   11.48495718610111    6.92018027311257
C         8.97085343829702   10.79193234438526   10.08585197799484
H         8.74956828708721    9.88402941837122   10.64289361641842
H         8.05849930791993   11.37789407186217   10.00160783543248
H         9.70272425183839   11.37095638921475   10.64549857843296
C         8.65694864110186    8.90051661791145    5.52561385985855
H         8.27453744991779    9.87436176549804    5.80111147630907
C         7.92197600944700    7.88504921945672    4.87315978617571
H         6.87558163446604    7.94298661699644    4.59604326995479
C         8.82179415025685    6.86093441573959    4.51200012340430
H         8.58644820751062    5.98564823956327    3.91794425272816
C        10.11038219595983    7.23892293904658    4.93956330658101
H        11.02827264292847    6.70752362037688    4.71603921821838
C        10.01320107956336    8.49980304373449    5.56434007141653
H        10.84715841599014    9.10429144944481    5.90169822844658
H         9.08693973772920    7.07647725704101   10.44925021952037

