85
CSD_code = HOLLUR | q = 0 | S = 0 | Stoichiometry = C36H46N2Zr | MND = 12
Zr        0.51503628166685    2.73151095024157    3.23236285042265
N        -0.02278189115468    1.74858083090342    4.95011061007874
N        -1.51484480259171    3.05434052908761    2.97178285588310
C        -1.32769230471300    1.34347654884716    4.62907746722896
H        -1.75284752415626    0.50785894593083    5.18310743953695
C        -2.04875114286138    1.97721272075537    3.66538162013945
H        -3.07075550222017    1.66450430093080    3.44736684257953
C         0.41592452423995    1.54916314865387    6.26442931786596
C         1.72006486794930    1.05134510949715    6.51518639884710
C         2.12604838107449    0.75247007048533    7.80427739064650
H         3.11485202243403    0.35228342340383    7.96891654452917
C         1.28286819004779    0.92787040291034    8.88369118564114
H         1.60080154239405    0.66342938697095    9.88087672585070
C         0.03392651856118    1.46884317364499    8.66127070261515
H        -0.61583121733522    1.64364027503378    9.50575970280613
C        -0.40491159899322    1.80985364809149    7.39018618960146
C         2.66623744591166    0.74170106761100    5.37741320172934
H         2.26689476282310    1.24026328462420    4.47755653124657
C         2.68920370807475   -0.77581154167360    5.15584755644898
H         3.12618078411275   -1.27246352910807    6.01977226365258
H         3.27834058237093   -1.03319049160086    4.27768575223660
H         1.67722026323275   -1.15565653369204    5.03022420809184
C         4.09398857558064    1.24571756306779    5.61025489710577
H         4.10201148847843    2.29313714608038    5.90089517939026
H         4.67773224681681    1.13754661486519    4.69753988495615
H         4.59258643930505    0.67450063531605    6.38928858166756
C        -1.71593959188944    2.56052948280147    7.29655312737133
H        -1.90299535051648    2.81564037639278    6.25223845087661
C        -1.60213826385805    3.86694047536879    8.09083475167599
H        -1.46758531670118    3.67119387151897    9.15145257236981
H        -2.50393495039930    4.46365634490224    7.97235220345231
H        -0.74934116476885    4.44747541385037    7.74373351780650
C        -2.89905603208905    1.73047615772426    7.79889880618088
H        -2.98278931927713    0.80381145068370    7.23613885600720
H        -3.82545133130502    2.28837680287403    7.67941335788973
H        -2.78421039469135    1.48045853742225    8.85079048435257
C        -2.38613972499542    4.00193381323089    2.37576154872626
C        -2.80755951655411    5.12465450904475    3.12265693988926
C        -3.50340058218294    6.15136599802608    2.50400722905347
H        -3.80302683361754    7.01452290016734    3.07805363272673
C        -3.84112890123581    6.08035032029571    1.16674213746253
H        -4.36592528652947    6.89503439848146    0.68979111398322
C        -3.55845153905895    4.92498574692344    0.46846797885991
H        -3.90145030043123    4.82721123405642   -0.55007910256016
C        -2.85761147391289    3.87854098271279    1.05339720106832
C        -2.72971868054715    2.58435408515062    0.28587411617917
H        -1.99272163156198    1.96524685627388    0.79617236833542
C        -4.07194335981972    1.84391206092819    0.32965943627742
H        -4.36323808319811    1.63853890283642    1.35741847103629
H        -3.99818088330553    0.89893834987755   -0.20519032029107
H        -4.85466654667670    2.44311363276087   -0.13074688583395
C        -2.29594150577274    2.78667751019783   -1.16873353455139
H        -3.12723573970790    3.13087161305744   -1.77936252078419
H        -1.94319394361534    1.84622614006505   -1.58786693069562
H        -1.49805015517614    3.52335039755568   -1.24181226841535
C        -2.64554998550205    5.13929817925284    4.62391260570672
H        -1.85361454125455    4.42680263590251    4.88473406864693
C        -2.29142116045086    6.50976339300865    5.20192171285639
H        -1.45202190798859    6.95478112232640    4.67346008937265
H        -2.02256687168920    6.40947544265832    6.25139806540840
H        -3.13672623656793    7.19128009907157    5.14326496012269
C        -3.96810390845021    4.64270946635977    5.22300072891493
H        -4.79231968404057    5.26939142376386    4.88744758430715
H        -3.93360317104647    4.67280742514882    6.30878491972148
H        -4.16512214542335    3.61999595643154    4.91045892836926
C         2.00035612575495    2.18125610414559    1.12280178631290
H         2.68887414112271    2.84727978742790    0.62005035560358
C         2.35625730087349    1.18996459421810    2.04990394753053
H         3.36539371312805    0.96860739777749    2.37136990310140
C         1.20867763163924    0.41531947141915    2.32346179745442
H         1.17385458099396   -0.50671369838718    2.88660431890706
C         0.14452763728572    0.92912646151086    1.55930161318090
H        -0.81451224265893    0.43651114359274    1.45126113737898
C         0.63026415140683    2.04441948521865    0.82899979976700
H         0.10908073847855    2.58485398483561    0.05074217733198
C         2.61411976612447    4.13270455998336    3.42486652436694
H         3.61757384673114    3.79840299074833    3.19017648887533
C         2.02145254641638    4.11876586536951    4.70545235924783
H         2.48041051176183    3.78460284864920    5.62681888384455
C         0.79295796117491    4.80757078773175    4.62582809830023
H         0.18395311094716    5.07860289061301    5.47639878237023
C         0.61779186500916    5.23800730260656    3.29084326902312
H        -0.16838728810509    5.88512148778421    2.92077180872974
C         1.74579260801244    4.82338051855093    2.55214394510942
H         1.96593466829877    5.12159482698635    1.53394070091088

