97
CSD_code = HOLMOM | q = 0 | S = 0 | Stoichiometry = C34H58N2Si2Zr | MND = 4
Zr        1.11576819868652   -6.00402547023299   -4.33045993010701
Si        4.25663091902651   -7.17772659479014   -4.16683562312641
Si       -1.45484763751315   -3.98957361762431   -4.75181093292243
N         0.41403437712398   -7.82240120227975   -5.03349131471170
N         0.39144917727466   -6.61787472464782   -2.50025607650380
C        -0.09705486641845   -6.08719243374094   -1.31552146242024
C        -0.98840714146124   -9.46558933268542   -6.22226089800450
C         0.37342359746331   -5.51624193980836   -8.23011708238981
H         0.12044538814891   -5.82894603364577   -9.24105960416118
H         0.93806897762529   -4.58686406613964   -8.29530090359228
H        -0.55322791449407   -5.32699211495040   -7.68998272365386
C         1.78662964680865   -4.36745943381469   -1.38222256597504
H         1.93859045913387   -4.86492793834503   -2.36599521795113
C        -3.29051345197611   -9.59643593771737   -5.27079876754230
H        -3.43885749950327   -8.55482883654770   -5.54626130271555
H        -3.86930099284999   -9.80344196843911   -4.37241413568881
H        -3.67283907055152  -10.22091986856882   -6.07417539669804
C         0.54937416637341   -8.58324014306750   -3.86920243186977
H         0.72136576603999   -9.65413475348542   -3.96346163162606
C        -1.80498488779949   -9.86947744372735   -5.01006868675238
H        -1.51423685087002   -9.24936063200736   -4.15928049605153
C         1.20191304302556   -6.60142254937170   -7.52832278755262
H         1.42167789048493   -6.25234933843573   -6.49158892322012
C         1.60226968577507   -2.86662862565568   -1.63065595195973
H         0.67091909710200   -2.67888323953901   -2.15937357663809
H         2.43150367777451   -2.47887046617113   -2.22113649836868
H         1.57546929319708   -2.32058844260505   -0.69040981877741
C        -2.12786721669363   -7.65456590348887   -1.31881157689842
H        -1.70199712404546   -7.92696634335747   -2.28810271462819
C        -1.59347091775582  -11.33545774656471   -4.62643302568735
H        -1.93489439405330  -11.99807119905115   -5.41797103058777
H        -2.14937610349062  -11.57037610889522   -3.72068430378172
H        -0.54039300609991  -11.54046552106184   -4.44549646730256
C        -1.27405924995370  -10.09157804970826   -7.42454322241144
H        -1.96089429975369  -10.92503284880682   -7.43261450602226
C        -3.52832324122530   -7.09099468332253   -1.58022402821550
H        -4.04794889977891   -6.88177323342049   -0.64852236945333
H        -4.11834471846000   -7.80864267905905   -2.14703344608440
H        -3.46167848808426   -6.16802040621996   -2.15135747307646
C         3.87019210950321   -7.60384837105021   -2.33467089514762
H         4.53426066563149   -7.07151292311564   -1.66098641421289
H         4.00131095212646   -8.66381597980332   -2.13892431263751
H         2.84402227459775   -7.34340856411115   -2.07714184238301
C         0.06611957295392   -8.53473281788440   -8.62006606935494
H         0.43279118979494   -8.15192745935289   -9.56108238363686
C         0.40850831685051   -3.97377691912947   -4.97021170862445
H         0.87774612538743   -3.17431345273977   -4.38438932908523
H         0.68295776486752   -3.79215407628469   -6.01747415960106
C        -2.47437334824685   -2.93845086885319   -5.99749416835683
H        -2.23938220216865   -1.88365978580298   -5.89925498002389
H        -3.54247721256655   -3.05052277550230   -5.84080742662888
H        -2.26326369747251   -3.22379840997098   -7.02364453108860
C         3.32544137780114   -5.61480008756413   -4.62324443070200
H         3.52677404818199   -5.33144591990348   -5.66711916100622
H         3.66677523968102   -4.77225847419967   -4.00286657714044
C         0.11487413246986   -4.46604684139789    0.47505865366522
H         0.63312209879701   -3.63214542699661    0.92448715139356
C        -0.05274661304534   -8.39676625617271   -6.19656274955618
C        -0.72592032609745   -9.66752839294870   -8.61932328611350
H        -0.95026823262304  -10.18208002689689   -9.54117801581338
C        -1.65607349987905   -6.05823772181245    0.53414709312407
H        -2.53059609525662   -6.45889604968514    1.02501354230470
C         3.02767435898620   -4.60415246654592   -0.51370567565282
H         2.95092884811367   -4.05060808555072    0.41962179140066
H         3.92548028066001   -4.27736300264550   -1.03510423457165
H         3.12827552778700   -5.65896466903475   -0.27229912555854
C        -2.02832372834353   -5.81644295355997   -4.95511483656085
H        -1.68507377710237   -6.25238607866183   -5.89492272986387
H        -3.11222086796793   -5.90349245230741   -4.94046272777272
H        -1.63807060619878   -6.42126282111653   -4.13203472897080
C        -1.25232463516405   -6.59879490221088   -0.67640596183282
C         0.56431187916691   -4.97970907857974   -0.72909523771694
C         0.51481731961173   -8.00048290109579   -2.64392037426369
H         0.61911124045361   -8.60497595853458   -1.74260616737954
C        -0.97862010015924   -5.00889358208110    1.12360423858991
H        -1.30851474775926   -4.60712392117947    2.06968860973641
C         2.53385931447721   -6.79317019654972   -8.26170683599960
H         3.11392510936947   -7.58728424863986   -7.80055619958656
H         3.11656849268336   -5.87368645569222   -8.23051365809302
H         2.36827799045164   -7.05190611144759   -9.30466781903887
C        -1.98506593886279   -3.44987511386532   -2.99014120628114
H        -1.48621610639508   -4.04538510657591   -2.22965409919610
H        -3.05527302905033   -3.56680521462275   -2.84945637466088
H        -1.75350118934973   -2.40564896583389   -2.80497273028604
C         0.40001457154797   -7.88636474801752   -7.44434652902595
C         3.69822753555643   -8.65429371447079   -5.26144844019877
H         2.65965732926336   -8.56005256493471   -5.57228477763636
H         3.79747333679381   -9.59366086284661   -4.72545469555421
H         4.31085498393137   -8.73611949670815   -6.15443095381034
C        -2.21025737615909   -8.92465751062431   -0.46968584717732
H        -1.21846886337847   -9.33762580242126   -0.29866991114781
H        -2.81216414489444   -9.67592473886146   -0.97737380457785
H        -2.66374931929632   -8.71838166353691    0.49681197196136
C         6.17307188379160   -7.11659931198768   -4.30879934803848
H         6.48495418747708   -6.90486636167811   -5.32683073975446
H         6.62776942432632   -8.05822977677584   -4.01742063457499
H         6.59088078693799   -6.34193968912055   -3.67344530154328

