45
CSD_code = HOLNUU | q = 0 | S = 0 | Stoichiometry = C20H18ClN3O2Zn | MND = 5
Zn        9.42325996217175    8.32424629554235    8.24199437879016
O         8.40126811583312    9.03570180870470    6.79738932431678
Cl        8.85306185230096    9.09319247570853   10.18844335184354
N         9.18249221508161    6.21149887256360    8.70308361803172
O         7.98553886370222    8.98407569825028    4.61770419572063
N        11.46310761644206    8.97870303995145    8.21329133681437
C         9.66462435715423    3.97486119791145    8.06999693995953
H        10.21277920238280    3.29620803408729    7.43445574450927
C         9.84484023362795    5.34595934576421    7.94167059111352
C        10.81465620572628    5.93567242730365    6.95327729650622
H        11.76947412438458    6.08427981039962    7.47125566307195
H        10.98272584955066    5.24025982174959    6.11728124833182
N        10.33365625103992    7.22771409695894    6.50017602868407
C         9.17279021460058    7.12083324027113    5.60570393696666
H         8.46521459848610    6.43457740214796    6.08886433757413
C         9.50104746063551    6.58536989100510    4.23895789898449
C         9.98679030626393    7.39425673497086    3.21784266063569
H        10.07602460182711    8.45811171979702    3.36699086532690
C        10.30765637088113    6.85224713913209    1.98535787961110
H        10.67417833724128    7.49559069701281    1.19894480409752
C        10.15503050923665    5.49621656977102    1.75405323746265
H        10.40855803854622    5.07614037392604    0.79188665046743
C         9.65716807705104    4.68356426216688    2.75794407956506
H         9.51809366887136    3.62648077777805    2.58237949423431
C         9.32909379755243    5.22676044415510    3.98701786561119
H         8.91917145035997    4.58776650757796    4.75921263565583
C         8.44622164168503    8.52097486732937    5.63630819663774
C        11.39012668246875    8.07386862669835    5.97814869361068
H        10.92088177323773    8.86639946683773    5.38661657438490
H        12.08273568318669    7.52688106835203    5.32220707583867
C        12.13949808702579    8.75182008158178    7.09223378930686
C        13.45724669708239    9.16739616573687    6.94087901394698
H        13.98170380620247    8.97123409477670    6.01826654079809
C        14.07208153284384    9.83815532635782    7.98420057271954
H        15.09390070051418   10.17410245630171    7.89001743512022
C        13.35327194345950   10.06945854768358    9.14774412845585
H        13.79458073279502   10.58876395765679    9.98266421242690
C        12.04658511270817    9.61920582065896    9.21831980636888
H        11.43112152649457    9.76747733285487   10.09476590243488
C         8.77335867241111    3.50323890693425    9.01980388015489
H         8.61067326689979    2.44239153944828    9.13598062178840
C         8.09773899745142    4.41613160323631    9.81502879416362
H         7.39856479448499    4.09060314340162   10.56778541810529
C         8.33548212855067    5.76641381268169    9.62090448084603
H         7.84902393954611    6.52709449686130   10.21514879900404

