45
CSD_code = HOLPIH | q = 0 | S = 0 | Stoichiometry = C14H20N4NiS6 | MND = 4
Ni        0.00017116579744    0.00012761059247    0.00010113136747
S         0.76063061763807    0.38799643043509    2.03306884661272
S         1.39097824200414    1.42027931349229   -0.95729693620982
S         4.78945055311456    4.03724236254751    2.34464506665504
N         2.82012146375610    2.20261200236585    2.54097754857284
N         3.23401632696919    2.89369823592025    0.47674086460539
C         1.96309996179478    1.54202852088004    1.70658544065569
C         2.22515047834903    1.97863861265089    0.40822507390955
C         3.60489141710181    3.03547276555514    1.78693227444506
C         3.81122962160060    3.58832923540930   -0.63832117005434
C         3.32473298338546    0.64694790790559    4.35148510033234
C         2.92151135071541    2.07129594211188    3.98428542882145
C         1.60826489539017    2.48265699781227    4.64146977410471
H         4.25349094986326    2.87350687035890   -1.33366045002099
H         4.57905211189370    4.26090801318808   -0.25894396758191
H         3.04081592633521    4.15773382696916   -1.15976544610838
H         4.25123776125374    0.37410061330202    3.85137988317328
H         3.47707099427364    0.57844540292291    5.42439425656742
H         2.54701313939282   -0.05592226544542    4.06361034260207
H         3.71530124730144    2.76667231412004    4.28077016638518
H         1.33236484764400    3.49071704680702    4.34045654567339
H         0.81062174306734    1.79917837779333    4.36159493190237
H         1.72181467180030    2.46242231036706    5.72119608105660
S        -0.76075913351030   -0.38784909049818   -2.03281457627415
C        -1.96319592124355   -1.54196147224761   -1.70655327037160
N        -2.82013185612642   -2.20261241319710   -2.54097996799503
C        -3.60488604979796   -3.03550168059618   -1.78694376775647
S        -4.78936953048398   -4.03735049932570   -2.34467780531796
N        -3.23406471576334   -2.89367387232744   -0.47673993568849
C        -2.22526250720274   -1.97854792523312   -0.40822627891919
S        -1.39108714712496   -1.42000104856701    0.95720264433673
C        -3.81126498526989   -3.58830356826826    0.63832651111931
H        -4.25363834042311   -2.87349014479667    1.33360444805581
H        -4.57899599460103   -4.26097829637842    0.25893564058035
H        -3.04081853623014   -4.15759902965712    1.15984151638190
C        -2.92146465798803   -2.07135332418091   -3.98429689966579
C        -3.32475265093748   -0.64704635167489   -4.35158178503528
H        -4.25128611471166   -0.37421992926684   -3.85151755291481
H        -3.47706331153103   -0.57861273247024   -5.42449941926502
H        -2.54707905139283    0.05588291838703   -4.06372863867052
C        -1.60818152627750   -2.48268829878276   -4.64142685263067
H        -1.33223930453824   -3.49071737589129   -4.34034983599334
H        -0.81057536230518   -1.79915828388795   -4.36157878966862
H        -1.72170646984013   -2.46252092043474   -5.72115665545218
H        -3.71520930314346   -2.76678510876650   -4.28076951632164

