56
CSD_code = HOLPON | q = 1 | S = 0 | Stoichiometry = C19H25N8NiO3(1+) | MND = 4
Ni       12.61254236741401    2.68293245777800    4.65806646416144
O        11.97885966514223    1.39922198251072    3.52066233194696
O        12.24808451281591    3.78515715099127    9.27370501885475
O        14.86621953559731    5.65883505333518    5.90143483578349
N        14.20094969001186    2.86653382287406    3.74256173506840
N        13.29091868286090    4.00067810150652    5.81627305363349
N        10.96719222638553    2.55202929806317    5.66397073774866
N         9.14716833778535    1.73503681227680    6.55187742835348
H         8.39860704095021    1.09659234963350    6.77151899527719
N        13.31295084824167    2.31924472801819    7.93407512418052
H        13.40288888562468    1.63991419981534    8.67144852739650
H        13.69461664220842    2.11625539512686    7.02084616558296
N        13.48706456713671    6.88894362372116    3.96132109363073
H        14.38096665228447    6.66443850758520    4.40850141409991
N        13.15410131886329    7.94148488332939    5.94315129679749
H        13.99384938232912    7.47492706687783    6.28032539700834
H        12.60194619308949    8.47131867962486    6.59561965278812
N        11.40068196326731    7.80908937196642    4.42795923772842
H        10.84409333310899    8.42521420431108    4.99623023435193
H        11.09354463523057    7.65235685749539    3.48295306191164
C        12.55863076877505    0.81493838025906    2.53102079329644
C        11.85067712553341   -0.17099684098078    1.80059830583028
H        10.83331682147771   -0.37918336388195    2.09504423331815
C        12.43926406517094   -0.84378485851764    0.76516756143736
H        11.87845512027788   -1.59627147010994    0.23131557881113
C        13.76178901504108   -0.57471991848387    0.38609644584997
H        14.20680804144862   -1.11927512964565   -0.43100631563315
C        14.47396663643397    0.37965691970895    1.05608117316406
H        15.49241930111192    0.60304276255550    0.77285270138886
C        13.89941760649697    1.09717012580681    2.12654639680193
C        14.63517624769189    2.11009247934060    2.77905804527123
H        15.64962483801960    2.27140095306495    2.41499018277453
C        15.08029209262835    3.92041332531289    4.23381168274509
H        16.00557713898252    3.47526450560613    4.63266438087396
C        14.39824682980064    4.60908775015359    5.42327400258302
C        12.64888976624242    4.48762198521549    7.01915180179281
H        13.15582226692573    5.40421539747059    7.34873383127154
C        11.15460464171224    4.77657193185308    6.78475322454396
H        10.73669012079625    5.24320338686547    7.67552220931701
H        11.03551086781068    5.44692951395593    5.92838651001552
C        10.45567642397865    3.48404707825038    6.52943328003945
C         9.31948494307688    2.97655653585858    7.09020445180831
H         8.65105258030219    3.39444105837347    7.81285376461830
C        10.15775223260103    1.51179379917931    5.70162999788178
H        10.28199771963445    0.61561797214073    5.12556690571696
C        12.72504387881881    3.49711858397039    8.20051528803167
C        15.49658466689119    4.93027449629599    3.14414445412202
H        15.97775966696264    5.76615632341895    3.65776433801429
H        16.26056273208214    4.48154240085903    2.50755642808957
C        14.37368826619300    5.42215373103543    2.22146932915319
H        14.06071553567108    4.60817797491255    1.56525864447247
H        14.78737208323440    6.21348271985835    1.59389869388034
C        13.11981232634250    5.94033156625551    2.92696147094043
H        12.46770682123174    6.41644636471176    2.18946244536604
H        12.57494350102975    5.08797746895779    3.37454097417573
C        12.66632082920818    7.53739954356890    4.77267498190159

