92
CSD_code = HOLSIK | q = 0 | S = 0 | Stoichiometry = C49H38O2OsP2 | MND = 5
Os        6.69502159347034    3.82752627337536    2.13515547406946
P         7.62633041563261    1.94197030920726    3.17365906511649
P         7.30146609907498    5.77149494409739    1.00767850966376
O         3.70197990333327    4.07588818590743    2.77214268369425
O         6.38819398726999    2.29669796413443   -0.49072445688478
C         4.81647817611329    3.94187840726274    2.48590980078998
C         6.46793650550066    2.89144046272151    0.49806675333038
C         7.70702496786909    4.63276385726514    3.55695164825075
C         8.54916168634355    5.07559994721673    4.47542040892436
C         8.12509007978473    5.33037172561178    5.83559636336692
H         7.06059426632654    5.36168374759406    6.02545809497256
C         9.00547181218570    5.42751981591316    6.84439325464411
H         8.66297986367982    5.56834356158911    7.86027994792478
C        10.42764474843999    5.27784188358811    6.63403131464132
C        11.31389998194236    5.16460187654788    7.70525050854548
H        10.92832368614715    5.20690921330362    8.71459573788946
C        12.66748850158279    4.99900076410112    7.48707609793676
H        13.34379039245792    4.91362464639643    8.32561899897290
C        13.15766040524476    4.94599955521136    6.19201625116416
H        14.21670297780061    4.82200169313863    6.01739415861556
C        12.28672822214866    5.05453075777550    5.12064525286717
H        12.66444181522031    5.01641767763111    4.10763250068479
C        10.92707858505517    5.21461347713814    5.32703979603172
C        10.00185246502396    5.38398914632635    4.16136722785355
H        10.04774294600085    6.43722860050382    3.84619872588655
H        10.34274862345186    4.78548825630834    3.31132204979865
C         9.43029491335733    1.92940995268236    3.44354947430686
C        10.01577729229952    2.01829741029386    4.70056739533333
H         9.39830711947163    2.06694695566912    5.58599942749913
C        11.39452984169722    2.05149373082542    4.81772249933548
H        11.84504825723206    2.11623976749404    5.79704817888332
C        12.19354977516860    2.01317063570308    3.68820795348390
H        13.26869462662441    2.03844242490219    3.78703800329425
C        11.61340994461143    1.95750676432854    2.42956882071544
H        12.23586856021163    1.94068866874020    1.54618653935955
C        10.23876667820050    1.92392635144579    2.30786540169382
H         9.77013464267374    1.89290437475293    1.33040523085804
C         7.01115532773941    1.49529826223143    4.83572794078597
C         6.10203929629853    2.30723106629209    5.49826985088569
H         5.76998772898591    3.22281274229729    5.02104418600102
C         5.62802949173869    1.94604967453405    6.74734335412098
H         4.92254130610587    2.58314146784869    7.26054085501314
C         6.05347507341067    0.76713401744375    7.33485918778751
H         5.68240350517240    0.48289532212151    8.30862582556442
C         6.95274340943405   -0.05386109288115    6.67103016499933
H         7.28004768527140   -0.97707929627653    7.12692020658169
C         7.43038050318026    0.30471683039823    5.42557848522704
H         8.13131845406799   -0.33423866434738    4.90465173181345
C         7.33086268998271    0.32777916552810    2.36311427030690
C         5.99755349564473    0.06359400108339    2.05676610599334
H         5.24907977126325    0.81502664470281    2.28755926697738
C         5.63854670055645   -1.13102351495602    1.46554923654769
H         4.60306947581231   -1.32810015050785    1.22966517055417
C         6.61146278282386   -2.07375149028668    1.17095403295912
H         6.33591044966079   -3.00665112086444    0.70167273749055
C         7.93668707091666   -1.81853966229684    1.47827527554360
H         8.69524905967149   -2.55418002193630    1.25198294391607
C         8.30085057619277   -0.62397345897869    2.07659516566119
H         9.33842274816628   -0.43778894655517    2.31699601875859
C         9.09513140601934    6.10624338778821    0.88048846809850
C         9.87917122278383    5.06356902399710    0.38855559986560
H         9.38892001182328    4.14884307812220    0.07073694537453
C        11.25109417367860    5.19016704207531    0.31717763740148
H        11.85108039529397    4.38022212717823   -0.07182620133396
C        11.85857389654123    6.35781547134671    0.75650792976247
H        12.93337394413375    6.45646432424885    0.71479193469882
C        11.08704616630495    7.39278671892193    1.25451483804905
H        11.56042146613720    8.29930010421629    1.60349353424881
C         9.70784908107780    7.27295560066886    1.31870541323147
H         9.11351148939382    8.08314590884060    1.71698055883106
C         6.77733593234691    5.84769359819345   -0.74185782891748
C         7.62895556059230    6.03664728764833   -1.82227400860161
H         8.69160722177630    6.16002019918569   -1.66481609373546
C         7.11247156782006    6.06576452738045   -3.10694516501907
H         7.77798778958519    6.20825061555039   -3.94625925955872
C         5.75331173729185    5.91291313002231   -3.31900187887450
H         5.35814286863106    5.93403061075799   -4.32390296335047
C         4.89952977777904    5.72910392509423   -2.24174581769473
H         3.83867370820570    5.60860162625388   -2.40530239205760
C         5.40986630587792    5.69299316535077   -0.95975061178711
H         4.75857063041537    5.53759828360521   -0.10585481912214
C         6.65031007319962    7.37838214383667    1.57685959253567
C         6.73181594312358    8.49828418407546    0.75186387381496
H         7.19770716322029    8.41595081425218   -0.22137831509326
C         6.21660209410166    9.70751383420370    1.17868955868565
H         6.27824010937795   10.57435360045855    0.53668882587267
C         5.61912359413534    9.80865402794553    2.42585195772101
H         5.21593655717901   10.75537626255365    2.75423760276598
C         5.53435402297544    8.69645719102079    3.24656074070243
H         5.06586484429834    8.77400894679257    4.21673053332778
C         6.04384044139031    7.48220056214485    2.82169609509584
H         5.97304784028511    6.59984311450929    3.44692660952169

