69
CSD_code = HOLTOU | q = 0 | S = 0 | Stoichiometry = C30H30FeN6Se2 | MND = 6
Se        1.01532935612342    4.49022045909747    1.93043548623492
Fe        4.33646738747422    6.47683220941899    4.46656235446592
N         3.46265546055773    6.47322323769688    6.18743655015328
N         5.43323429905795    8.03843084142821    5.39309716058181
N         3.16192589237951    5.17926873434506    3.75084601755145
C         4.12666035076799    7.06776159805348    7.19131140663935
C         2.33666132794789    5.82328461630763    6.48677515100338
H         1.85231648447949    5.33279440895810    5.65799044218106
C         4.62326823962125    9.24399875580088    5.17207580926364
H         5.21055873357153   10.15262936149555    5.35098520439139
H         3.80017504567204    9.23156420052266    5.88970483506301
C         6.81169339491839    8.17467136574456    4.88436152932997
H         6.75469525831445    8.44615534445635    3.82851544864259
H         7.26690640230544    7.18507068933223    4.95520787752505
C         1.82164695106521    5.74656914898530    7.76603862401708
H         0.91117834558990    5.19865336544232    7.94593103915299
C         7.66572714151673    9.17386259230775    5.62363208777388
C         7.72331176325182   10.50258801503289    5.21734407100772
H         7.18502736332874   10.82149382353671    4.33431542230194
C         5.42802858456940    7.71713285015940    6.82331784553491
H         5.62049092840460    8.60521638770749    7.43981078276263
H         6.22202187291435    6.99221238466134    7.02179065680397
C         3.67222839141467    7.04567797028426    8.50012733763531
H         4.24616192880495    7.53597834599049    9.27118722011367
C         2.32085207010054    4.84151594534911    3.01311591714024
C         2.49874321167173    6.37351305145550    8.80147274146833
H         2.13116352770846    6.33294538362169    9.81464461909775
C         8.49039008308913   11.42113297312028    5.91363663616119
H         8.52569960686266   12.44944033781580    5.58507343533552
C         8.41997632201623    8.77660481259838    6.72260200504332
H         8.42322622071159    7.73953365358570    7.02498969220545
C         9.21716261468344   11.01994802810993    7.02091805529244
H         9.81666801871009   11.73567056132615    7.56296370075499
C         9.18795212615965    9.69331864557149    7.41759080057477
H         9.77022547640350    9.36897652391565    8.26661389522396
N         5.21068059061540    6.47335753734811    2.74610399122002
N         3.24037378670891    8.03910706271026    3.54034971648996
C         4.54767128041318    7.06907695246151    1.74227597688592
C         6.33669607001972    5.82331883232804    2.44703250946203
H         6.82009997576539    5.33172483580415    3.27570684284061
C         4.05027355410344    9.24455174158743    3.76227634442507
H         3.46293109507168   10.15329048684473    3.58411931850382
H         4.87335760713632    9.23277927606081    3.04462683655077
C         1.86165756226392    8.17525976624550    4.04848378738846
H         1.91817311605717    8.44710065078272    5.10426696770458
H         1.40663664438195    7.18556788801591    3.97773348134772
C         6.85277793837535    5.74778656251560    1.16813885377486
H         7.76323620745935    5.19978546721049    0.98846245395101
C         1.00787304161622    9.17402883861425    3.30835374713637
C         0.94990744565557   10.50294386787527    3.71394845721181
H         1.48748979235033   10.82231746382949    4.59723577905914
C         3.24619969865185    7.71838562732729    2.10998224984422
H         3.05408894265778    8.60674620727353    1.49379335959927
H         2.45224405169095    6.99360135989246    1.91089658832281
C         5.00320959585650    7.04821926609690    0.43382647348174
H         4.43014185989557    7.53955808890300   -0.33721536032469
C         6.17677589473440    6.37604530582962    0.13278634700376
H         6.54529101627563    6.33653727769242   -0.88008503244932
C         0.18329322185817   11.42110360623320    3.01663079042534
H         0.14773086937666   12.44958292932814    3.34462582914551
C         0.25435943842187    8.77617634009862    2.20908535569889
H         0.25124702081385    7.73892931220468    1.90729244692732
C        -0.54260646075558   11.01935049971628    1.90898595252020
H        -1.14160387108879   11.73481266726117    1.36603469709124
C        -0.51310801461725    9.69250973607163    1.51304402204490
H        -1.09473266671925    9.36770956296481    0.66375013665978
Se        7.65562779559472    4.48853666882757    7.00351053863068
N         5.51010213416987    5.17811019034850    5.18199745829478
C         6.35087358301665    4.84009750046077    5.92002122469737

