49
CSD_code = HOLVEJ | q = 0 | S = 0 | Stoichiometry = C20H20N4NiO4 | MND = 4
Ni        5.20112798964683    1.11300608612229    2.03001232676205
O         6.01861287565260    2.18746933751433    3.45016231629735
O         9.05953274113727    3.66372343841897    8.77499922836923
N         5.80553540702772   -0.24544631493551    3.08009925825368
N         6.44964525981800    0.07083864487251    4.19950194489817
C         5.56205885126992   -1.46021005840307    2.65941695366516
C         5.98289134226785   -2.68849081853505    3.39241739798399
C         6.51862434928377    1.40089302212050    4.31983910904964
C         7.19288108673329    1.94988172285663    5.49732668352227
C         7.27012685234995    3.33545613969193    5.66295625818504
C         7.89679744524824    3.87046896566245    6.76209177590410
C         8.46602625786287    3.03501662966033    7.72941145093573
C         8.39234411259093    1.65236068126754    7.56671911792015
C         7.76075461512092    1.12004937140070    6.46027084693228
C         9.64928546650876    2.88746806875776    9.79029435504960
H         6.82720707852484    3.97074346290284    4.91163674211537
H         8.82438729023612    0.98581805678014    8.29671083544390
H         6.45006566775100   -2.39745223965606    4.32919253206298
H         7.96462104047080    4.93717618131059    6.90642755889977
H         7.70078920220915    0.05154518764855    6.32814536093135
H         8.91209759211591    2.24860528832476   10.28688882497029
H         5.12214388725981   -3.32416206572535    3.59440188009682
H         6.69424847106492   -3.26044503291506    2.79740514984369
H        10.46452038167712    2.26918134496308    9.40127434686975
H        10.05026113195839    3.59979706508113   10.50964757564693
O         4.38394155085073    2.18747265628720    0.60969051488446
C         3.88340666921649    1.40089764390300   -0.25968419957426
N         3.95204946628282    0.07084277997648   -0.13915069484606
N         4.59622346662736   -0.24544399290676    0.98021076907049
C         4.83932879256301   -1.46020953889166    1.40110543451591
C         4.41801996167833   -2.68848846398022    0.66837329997928
H         3.95080481084125   -2.39745786157195   -0.26839451328160
H         5.27855530770964   -3.32446164579448    0.46638193426697
H         3.70656470226015   -3.26012783038764    1.26359049052572
C         3.20880107231759    1.94988491345375   -1.43697224391621
C         3.13204157176495    3.33544993936139   -1.60289448244647
C         2.50484432347612    3.87046138550893   -2.70173049038798
C         1.93455676611940    3.03501856303757   -3.66843008287744
O         1.34049451495417    3.66372711739548   -4.71370258408703
C         0.74943156191570    2.88748249797082   -5.72824380255322
H         1.48586601270807    2.24819768906762   -6.22540969081056
H        -0.06568028427068    2.26962769614032   -5.33828138638502
H         0.34804906195622    3.59980974390291   -6.44737290086129
C         2.00780607216520    1.65237134792584   -3.50547386932272
C         2.63995007260793    1.12006046739781   -2.39934164388487
H         2.69956694966475    0.05156300241650   -2.26700400128304
H         1.57496944942633    0.98583644194099   -4.23500132461044
H         2.43737422794133    4.93716178517099   -2.84628055450719
H         3.57574750343705    3.97073149749030   -0.85203380821538

