32
CSD_code = HOLWUA | q = -1 | S = 0 | Stoichiometry = C13H15IrN3(1-) | MND = 8
Ir        0.70604584951925    5.54559665413942    5.98663147325066
C         1.64341449903438    5.25195827868844    7.68400175662577
N         2.01685824017432    5.03799688388502    8.75412710393326
C         1.78085808700014    7.16998291661997    5.76115396844905
N         2.24866581693810    8.20801098974024    5.57679592171269
C         2.12174925499041    4.54004539623505    5.07306403062707
N         2.79794618633677    3.85788131542029    4.43442286922174
C        -1.24707823152280    6.47129060364884    5.17630067904665
C        -1.00333960804933    5.25390185611090    4.48877898586892
C        -1.06312883624893    4.18841933559113    5.44387422099664
C        -1.33323599296102    4.75488308726235    6.71503851324922
C        -1.41489652578787    6.17241574817311    6.56040142310128
C        -1.46122011885151    7.81495094510053    4.54835051411496
H        -2.52764990877819    7.98127992454187    4.36233327329875
H        -0.93339121624961    7.89431865351717    3.59900269537581
H        -1.09986410967253    8.61339663338803    5.19551143904429
C        -0.95214519208181    5.06613218355188    3.00224957511578
H        -1.94524061214073    4.81648628928551    2.61269771652706
H        -0.27083021030856    4.25883014459368    2.73428127623867
H        -0.60988528388513    5.97194048938645    2.50321767169734
C        -1.07182744409554    2.73038029788358    5.09549972166424
H        -2.05944057236350    2.43076663702261    4.72827149418511
H        -0.83159565514944    2.11711234979504    5.96306935931927
H        -0.34026825662521    2.51012182129824    4.31826923307388
C        -1.65848408104434    4.00706994489406    7.97241462685336
H        -2.74334713210447    3.90817028000488    8.08573228945503
H        -1.27083254857852    4.52556477708917    8.84887714810720
H        -1.22493661512558    3.00806807298733    7.95968721795794
C        -1.89332743973195    7.13149099964193    7.60893185999679
H        -2.98840269418467    7.16792024817530    7.62737624119319
H        -1.52462832407634    8.13825557490693    7.41508278774862
H        -1.54844132437602    6.83206066741968    8.59825291295016

