33
CSD_code = HOLXEM | q = 0 | S = 0 | Stoichiometry = C11H16N2O2SiW | MND = 8
W         6.54159507554075    1.62076555893505    4.84193484443210
Si        5.14244389828415    2.59426219543146    0.10482545446551
N         5.40838286579542    1.64051374931816    3.41090306166867
N         4.59277766691874    1.54206290688940    2.55728138940669
O         8.58056988754173   -0.00600215410591    3.14048178828148
O         8.19109848578186    3.96181037182946    3.60596647360574
C         7.14713575225335    1.78660660873563    7.09741902388077
H         8.06338066801688    2.14319250368599    7.55285217587747
C         6.81439329726441    0.43515388055335    6.85987322318689
H         7.45657411456877   -0.41590970124786    7.04953203790463
C         5.45282724640858    0.37001568559850    6.47874793638828
H         4.86999393510646   -0.53632034867100    6.37196566545159
C         4.93070783007006    1.68944233583068    6.50940894963750
H         3.88528085373661    1.95428786591930    6.40716306990746
C         5.97215486026022    2.56523501520369    6.88571529246693
H         5.86093784689267    3.61317533312354    7.13641551765372
C         7.81096090004150    0.58520401983831    3.76093895066798
C         7.57729496801334    3.09529251514416    4.05380465666280
C         4.04481592707995    2.54152268487461    1.71131722971529
H         4.03301984290519    3.51295133201222    2.21660811924803
H         3.02358273304102    2.25292944420578    1.46939561988122
C         6.94253289106891    2.82927860457344    0.66156151335565
H         7.63138602793679    2.76078059350992   -0.17450483177258
H         7.22459600793489    2.06813346347613    1.38783824907103
H         7.09615725240424    3.79582442575384    1.13244131758242
C         4.51591078938433    4.04861400266046   -0.95829334028270
H         4.63332829275561    4.99884528450952   -0.44629507282780
H         3.46598710905071    3.93852268450275   -1.21210385239537
H         5.07166486488368    4.10902446581331   -1.88816050720709
C         4.90141111579110    0.92321751853568   -0.77631871725686
H         5.53095956084629    0.85094699073201   -1.65766171888399
H         3.87362305240519    0.77795173622764   -1.09617852807551
H         5.16201437999797    0.09976842660313   -0.11787499170343

