85
CSD_code = HOMFAT | q = 0 | S = 0 | Stoichiometry = C45H27F6N4O2Rh | MND = 6
Rh        6.57493559760115    3.54943617501782    3.06273163614141
F         2.36044773860756    5.50270226223061    0.25926527239653
F         2.85762628521219    3.42697277554272   -0.03076907162669
F         1.39035601044846    3.98606829251726    1.44130892940338
F         3.66452718255149    7.90486142811496    4.41962710241026
F         4.70197645483396    6.89359536208862    6.01103975028422
F         2.65144844738590    6.39719754590220    5.57668443238203
O         4.66040952680389    3.71144528665978    1.80248375806311
O         5.41634664451601    5.13118802112457    4.25762102106429
N         5.84929716243932    2.40236527233137    4.50882115761894
N         4.54070529018771    1.79710044422778    6.87679304220778
N         7.21758309265665    4.74379881934761    1.61352520426238
N         7.08427275799344    6.13544497742947   -0.78041406487797
C         8.12952264282703    3.58541437120386    4.27178987183242
C         9.42738540735944    4.01311345951883    4.03477136733289
H         9.73295871239570    4.31034518158466    3.04026677347243
C        10.35095350719779    4.04253823770598    5.06821754483182
H        11.36238402643245    4.36814381950171    4.87227922201112
C         9.99149593799047    3.64270331239116    6.34740734082967
H        10.72369003955906    3.65211852943031    7.14084976917111
C         8.70277439815255    3.22409241577368    6.61007728785406
H         8.43373924672117    2.89559921481433    7.60208873046153
C         7.76126719660773    3.21084030455936    5.58032743329721
C         6.40097061879364    2.70571085778617    5.68693288767263
C         4.70637905344789    1.67376960587735    4.47992548101620
C         4.16382723096777    1.20396305693741    3.26957916818940
H         4.67079312863564    1.44051195768628    2.34388920414009
C         3.03211445184021    0.43320133574469    3.28298110600157
H         2.61953534469370    0.07088570320336    2.35361178400346
C         2.40496541868784    0.09516959317530    4.49233523386381
H         1.51211758001517   -0.51123316688633    4.47271519250775
C         2.92011363829916    0.52066500314269    5.68645286522182
H         2.46314384029369    0.26786830832557    6.62981936821315
C         4.07834130792156    1.31954209033892    5.70824662645429
C         5.65115843584065    2.48812968071530    6.88596174645168
C         6.01192913932909    3.12648945821268    8.15897389123587
C         5.91646742701519    2.41400671766855    9.35026815403464
H         5.62296503761673    1.37589659756029    9.31835171148816
C         6.20646535212285    3.03251978200482   10.55235266546931
H         6.14343433427502    2.47265684563339   11.47379310032991
C         6.56918039940224    4.36927283740965   10.57613551257914
H         6.79075079766367    4.85201503426807   11.51643079256852
C         6.63691676314646    5.08991076199994    9.39409096634274
H         6.90011760670779    6.13668670098313    9.41183837072395
C         6.36279440391842    4.47520633234591    8.18745016553306
H         6.40094890693348    5.04049402695178    7.26836220855643
C         7.38527084140096    2.18442000409627    1.89614151476318
C         7.68888734821679    0.85739562001907    2.16174288197141
H         7.56532928255738    0.45637636542842    3.15908035939857
C         8.17463112271107    0.03855449770185    1.15407568802660
H         8.41751552535526   -0.99134223766195    1.37257261605959
C         8.36657460696563    0.53463725501097   -0.12752481898934
H         8.76361750627074   -0.10675417001646   -0.90001320368388
C         8.05989426157737    1.84840856599896   -0.41898036194262
H         8.22919221448053    2.23480997603775   -1.41217312850757
C         7.55040139677486    2.67372204608101    0.58409659843625
C         7.27347153338265    4.09570162977646    0.44685946611699
C         7.23476480296490    6.09939724090749    1.62036246435875
C         7.33073104290950    6.82762306454746    2.82063010835848
H         7.38965822253305    6.28672060558921    3.75553811627649
C         7.38197691756247    8.19551765088442    2.78627564654231
H         7.45830601959452    8.75239095547815    3.70781066388045
C         7.34912124430822    8.88707426288202    1.56529568442391
H         7.38619878157559    9.96586624607798    1.56841831358113
C         7.28021326449681    8.20569017172125    0.38069915345416
H         7.26476848017843    8.71197171416183   -0.57117668751542
C         7.22102418736285    6.79974483027010    0.38029190876891
C         7.08924414621509    4.82748718005198   -0.76860836674261
C         6.77140202308121    4.16348519250874   -2.04012346377492
C         7.35880969233330    4.60213521162897   -3.22264646184265
H         8.08428622216656    5.40020090893107   -3.18307603817091
C         7.02011282769292    4.01037115529101   -4.42544989689755
H         7.48783683836276    4.34506955641406   -5.33955755020301
C         6.07719830860963    2.99614528511325   -4.45941948021709
H         5.81013336702080    2.53828168311279   -5.40033716652185
C         5.46841416087593    2.57667637290402   -3.28705120949041
H         4.71900393427967    1.80012590327596   -3.31346845624476
C         5.81241220529285    3.15281863423664   -2.07926593742578
H         5.32738720763290    2.83592511021895   -1.16825313856460
C         2.56755474292148    4.34094020187704    0.89922752369866
C         3.68261907729304    4.45450836634000    1.96464882959986
C         3.42019728432736    5.38802001999458    2.96929791308399
H         2.49629802272385    5.94061889989166    2.93413324643827
C         4.30990569985385    5.63358098082961    4.01685956452370
C         3.82950211209253    6.71155841229300    5.01617539154733

