75
CSD_code = HOMJOJ | q = 0 | S = 0 | Stoichiometry = C22H48NSi3V | MND = 4
V         7.04308022806761    7.04307902299465    7.04301237125491
Si        4.64023124775464    8.68979013156755    8.72975895743122
N         6.12759426433338    6.12762367190428    6.12749600069391
C         5.93993190624041    7.31268280923790    8.70890818443358
C         3.50313662587298    8.55500663057649   10.26951914874124
C         5.46487828233491   10.42206722310347    8.80167060098277
C         3.53273217510149    8.60963564243921    7.16856496081264
C         5.32211563214257    5.32215814281264    5.32209578249387
C         4.09556348548956    4.82753232502793    6.11822060187206
C         3.21791462116964    3.94919006588951    5.22930217695255
C         4.02117771915584    2.73934487020582    4.75342555948818
H         5.49827527582541    6.38061454827267    9.07282282893872
H         6.75835883664821    7.58246213195323    9.39347935461439
H         3.01172092178367    7.58797319740850   10.31168588492045
H         4.06263651364942    8.67864198172102   11.19179315565789
H         2.72889273907771    9.31565693515263   10.25267643479023
H         4.73932214013084   11.18386906316643    9.07119878016899
H         6.25903617223891   10.45748537277328    9.54338726721558
H         5.89043709693277   10.70663946872470    7.84347492453412
H         2.72992976393821    7.88990404830279    7.29345608944975
H         3.07593746277805    9.57132311796997    6.95537145483876
H         4.12328244049468    8.31056094399347    6.30524122585345
H         3.54175102313532    5.69566716052246    6.47898382133777
H         4.44368243254937    4.26300570731404    6.98542431434798
H         2.35092282130545    3.60665831224253    5.80551376668407
H         3.39287700764946    2.09622189997414    4.13310650268672
H         4.35591975428721    2.15528932563551    5.61294415466660
Si        8.68991653804395    8.72987054882343    4.64027675992638
Si        8.72987140311955    4.64028799550350    8.68980975786814
C         7.31280272580003    8.70902818494934    5.93996737227487
C         8.70898251395162    5.93995164661669    7.31267232783562
C         8.55536770609403   10.26985340959927    3.50344672003123
C        10.26983864545863    3.50344155198574    8.55522521832386
C        10.42224617651220    8.80136008762560    5.46487206525623
C         8.80144241489861    5.46495631577531   10.42209906568950
C         8.60941753828270    7.16884826821118    3.53255323676888
C         7.16886021672907    3.53254065729956    8.60946512237140
C         4.82739366610430    6.11814883970685    4.09549603147303
C         6.11814176518046    4.09555194908432    4.82744957445101
C         3.94905836184638    5.22910027104679    3.21796952932330
C         5.22909797370341    3.21789699621236    3.94923978561147
C         2.73926834285968    4.75323367442861    4.02132445888330
C         4.75313940681912    4.02111937060358    2.73939811419724
H         6.38076413042137    9.07302615085138    5.49831381668441
H         9.07290571614671    5.49827805337732    6.38061384376352
H         7.58260614602802    9.39353278961731    6.75844409898915
H         9.39353407129151    6.75840350070925    7.58242891056548
H         7.58830450279277   10.31231493601870    3.01210686211581
H        10.31223622820938    3.01204933913532    7.58818653997716
H         8.67923837633363   11.19200369309857    4.06310522940050
H        11.19200148336066    4.06309756465829    8.67900823051747
H         9.31595849806870   10.25299053421281    2.72914539458839
H        10.25301679808295    2.72917994438483    9.31585765940888
H        11.18401716801907    9.07116940639677    4.73938815250136
H         9.07127552920251    4.73950549608396   11.18389315736733
H        10.45774635524152    9.54273649277060    6.25935114275025
H         9.54282468987709    6.25943237513113   10.45753138980704
H        10.70680203016048    7.84296524238875    5.89000141443703
H         7.84306018561655    5.89010373690278   10.70667015231955
H         7.88953170531483    7.29393866544948    2.72991511103270
H         7.29387200507087    2.72991591917381    7.88955067823667
H         9.57099319400178    6.95561883270753    3.07552227967744
H         6.95576452897110    3.07549160531376    9.57106262148259
H         8.31037314925501    6.30547679107617    4.12304216161887
H         6.30543149274666    4.12301245987845    8.31054711459415
H         5.69548100713600    6.47890978107170    3.54160600420937
H         6.47897285032068    3.54176744523504    5.69557535272004
H         4.26283170447240    6.98535053716359    4.44355966786033
H         6.98530183117052    4.44360660005501    4.26281556140093
H         3.60645941239077    5.80521472001603    2.35093945929914
H         5.80523816767276    2.35086353725770    3.60669599055472
H         2.09615603576278    4.13281614108278    3.39310942285124
H         4.13272515882398    3.39281565751865    2.09636976173460
H         2.15517565702089    5.61275040626633    4.35600412589211
H         5.61261620552727    4.35578812663450    2.15523924549386

