67
CSD_code = HOMKID | q = -1 | S = 0 | Stoichiometry = C18H46IrP2(1-) | MND = 6
Ir       10.87270590966590   10.32787688752302   14.74871909143600
P        10.76250129548161   12.11179305428151   16.26600366392530
P        10.81394803654083   11.18061420460983   12.54244677495998
C        11.07174601159616   13.88876405152548   15.70271929919536
C        10.68176852232956   15.07736242810067   16.58083080014996
C        12.52540615443067   14.00539272479229   15.25556927502171
C        11.86307203909204   11.84180143652244   17.77959309059893
C        11.80275294782634   12.83652587168675   18.93950813554594
C        13.32297769801038   11.58445059968306   17.42116092138600
C         9.12729167945210   12.35781190239068   17.18209184938210
C         8.75965074872559   11.10278865639424   17.96643545706089
C         8.01639431512919   12.66788650953089   16.18640374644625
C        10.39333209172472   12.98581262121569   12.14331656995792
C        10.63547927803405   13.59349767193414   10.76191843470666
C         8.95718443122781   13.25757547743377   12.57966611018363
C         9.73809589996915   10.15059423580810   11.36737691753416
C         8.35964482030403    9.87078195346926   11.95792543174531
C         9.57190384529080   10.58904094596913    9.91427736788644
C        12.42453444340776   11.04100043167746   11.57502398236828
C        13.02205813830539    9.64862126440400   11.73497142008162
C        13.46813901900868   12.05871932535947   12.02128610558069
H        11.03595586292220    8.97900389305465   13.99964825378420
H        11.09635765325189    9.46560154365463   16.01649656666413
H        12.85861013133398   10.88704440409902   14.58916315952842
H         9.36443213142444   10.04691065048522   14.86129350557875
H        10.44327711275431   13.93958169574077   14.80409913726585
H        10.91228915009824   16.00072529365077   16.04361876659323
H        11.23478565702896   15.09112887645389   17.51497125304122
H         9.61817980138929   15.08384245048520   16.80763223110036
H        12.65036730608340   14.78691731771547   14.50200887231860
H        12.85376324487503   13.05965384495848   14.83541056650583
H        13.17173642273024   14.24686910395074   16.09785971311230
H        11.45942240587935   10.88050371114038   18.12607930837415
H        12.29055259452258   12.39279191267582   19.81015479191507
H        10.78609799422531   13.09464044295160   19.22474577859156
H        12.34281268616500   13.74982781945592   18.69711057850085
H        13.81262616371931   11.02001420472738   18.21700762047360
H        13.87197505942076   12.51373699447407   17.28004367191493
H        13.38094962475806   11.00769276766420   16.50742276293163
H         9.22013489264309   13.20182118891756   17.87372931022544
H         7.71782142338281   11.14930808486747   18.28898901798595
H         9.38066563914035   10.98577733468749   18.85141621581446
H         8.89267079942812   10.23078401248468   17.32784584092414
H         7.06233150715587   12.79440635252905   16.70280495571982
H         7.92383951035992   11.83880758540954   15.48787727925717
H         8.22191954657905   13.57860605618816   15.62772650175778
H        11.06343669802833   13.50167907664042   12.84415923355342
H        10.55505838721865   14.68118610823858   10.83595804191655
H         9.89361998067325   13.25918688612400   10.04277248297795
H        11.62137055655116   13.36027877212221   10.37121708590452
H         8.79674105290803   14.31860009910095   12.78512981182909
H         8.73262453187707   12.68438289679501   13.47727866439836
H         8.25677020904777   12.96074944164302   11.80041416241463
H        10.27917913813106    9.19570531275629   11.37739318228555
H         7.85909757516911    9.08690912412513   11.38667846677729
H         7.73058222108286   10.75761384427526   11.93863831935028
H         8.46798595891145    9.54062279657628   12.98758918221885
H         9.17701441371255    9.75484660222634    9.33047205322277
H        10.50835362222749   10.89679060112911    9.45707603630088
H         8.85791084435991   11.40636345953354    9.83726646579677
H        12.19165600789503   11.21040693653539   10.51334300317111
H        13.97123071505049    9.58140219938932   11.19849005432383
H        12.35955347183251    8.87103809683520   11.35941696361433
H        13.19991944610197    9.46890795122704   12.79060248770200
H        14.37623242750781   11.95062646547091   11.42331059100749
H        13.72066295754910   11.86116016976747   13.05565920025651
H        13.12503813736060   13.08773336274438   11.93853440593525

