68
CSD_code = HOMKAV | q = -1 | S = 0 | Stoichiometry = C18H47OsP2(1-) | MND = 7
Os        8.08802618800869   29.28130052786260    5.22215566736420
P         8.36242404623392   31.57144048177148    5.18777336927687
C         8.77526351566088   32.54721676118246    6.77305587982190
P         7.82993239687921   26.99279744017728    5.28713305529748
C         7.53072704568201   32.75769684184834    7.63103211189236
C         9.79654661662211   31.79589559673133    7.62159183806376
C         9.72637550697666   32.34343579241017    4.08612079658541
C         9.45347795202649   32.02574073644167    2.61840722379922
C        11.10876518295975   31.81787172580508    4.46185374490902
C         6.94554366546373   32.63010406741642    4.45721708724204
C         5.57965054530457   32.32292112374081    5.07013221337519
C         7.13579496050240   34.14394985213221    4.35655172902792
C         7.13645592725027   26.01309623088874    3.80357792838057
C         5.71913369920284   26.45442599164742    3.45398808352912
C         8.04177188577229   26.23486476455955    2.59753233319515
C         6.69300731235629   26.21917183215292    6.62068662541307
C         7.37100514826125   26.14358215158081    7.98794572400006
C         5.41468025468739   27.03566470091998    6.79430177140499
C         9.35997303520008   25.91299059100002    5.66794322366724
C         9.19248805210913   24.39507780032658    5.61564237348963
C        10.60785268596648   26.31168269743187    4.88336306661642
H         9.19672656186253   33.51757476704452    6.47514300287018
H         7.81651360194746   33.01422925694730    8.65362742185729
H         6.95585747222492   31.83264569087360    7.65730917845433
H         6.89932699893777   33.55723733579132    7.25261874987690
H        10.09661695407756   32.40392008591256    8.47936101741107
H        10.68347285702780   31.52731827461521    7.05756959491511
H         9.34812581813687   30.87377399242509    7.98422633754618
H         9.71989378199093   33.43057604516388    4.23440202187951
H        10.32887559706210   32.25507097107889    2.00670712995377
H         8.61411760584193   32.59511321225180    2.22433550724530
H         9.23083654061801   30.96406555905713    2.51936758021534
H        11.82029169611969   31.99985555750567    3.65335623416266
H        11.05462443916119   30.74435112933671    4.63752934063525
H        11.49170458198025   32.30685838656623    5.35520014695019
H         6.91465687954691   32.21299032701175    3.44015471116575
H         4.79009900462458   32.51774387810612    4.34131345231368
H         5.37824244445181   32.92860264587145    5.94990654681338
H         5.53557980054766   31.27222464479208    5.35096705338523
H         6.22148876565729   34.59082868053672    3.95964720443213
H         7.94960720847007   34.41355970712361    3.68831240774361
H         7.32895043015374   34.58888874999706    5.32991899204518
H         7.12208607055272   24.94717375489975    4.06351372725767
H         5.44853086367520   26.10831284694591    2.45371769942404
H         5.66554762540971   27.54264441004403    3.46750476363027
H         4.99032779781789   26.05061814105721    4.15370916362558
H         7.56520980715463   25.87557595516979    1.68240981584386
H         8.99027293988810   25.71666704482580    2.70875055098437
H         8.24153819793335   27.30055182136541    2.49270638795500
H         6.41816312071204   25.21041894727701    6.28176703373547
H         6.62068943378606   25.98529259235431    8.76559627553663
H         7.87348527770569   27.08996717238238    8.18818005780721
H         8.09594331138700   25.33558342922423    8.05656079582212
H         4.70122410750788   26.49181434979037    7.41951069514426
H         4.94255229513124   27.26636442208500    5.84498284688693
H         5.65383968517632   27.97971008643075    7.27790154653273
H         9.55429130588997   26.21448999701075    6.70622417672092
H         8.30006222126717   24.05719765008284    6.13597540207434
H        10.05726324273875   23.92091052684738    6.08560762084210
H         9.14407477187716   24.04510092778238    4.58602509874974
H        11.50493890111315   26.00059000260850    5.42305244516430
H        10.63333170173287   27.39143968678151    4.76024669270774
H        10.63567455375375   25.85111392381584    3.89802758478679
H         7.74826793860429   29.35220451139722    6.77860315211806
H         7.43627251882715   29.39833725784841    3.76862124188706
H         6.51578513606343   29.40929673805156    5.37485961900841
H         9.46044858199908   29.14022557876422    6.02303737502262
H         9.25117392872432   29.10974161912693    4.15002875250803

