64
CSD_code = HOMRUW | q = 0 | S = 0 | Stoichiometry = C18H34Cl3N3O5Os | MND = 6
Os        0.55442610259630    1.82794294068165    3.34981841752726
Cl        0.46651337431846    6.66593435947959    0.09842647857672
Cl        1.43318641237001    9.36382273734272    0.48790499890033
Cl       -0.54521373509833    8.26495228205920    2.27998780835736
O        -0.14619363281468    1.79312340972289    4.80804268823987
O         0.84876213962192    1.58484776944879    1.77915346253121
O         2.41413837908613    1.73263968652897    3.97225775267574
O         0.90722318793575    3.75616206280618    3.28916945533978
O         3.08091639073064    7.90709992725138    2.31396088582612
N         0.03584423516068   -0.54483619678370    3.39090836803051
N        -1.80728028970903    1.69705790945508    2.52885988749491
N         1.63446116389110    6.25238163554738    2.87483985552787
C         0.46264527864164   -1.09402563238316    4.67551890724387
C         0.73674251004503   -1.23755110952190    2.31493508760613
C        -1.42003077410494   -0.66350339371593    3.24558318764784
C        -1.99086403915561    0.28294802836380    2.18667311553218
C        -2.76389405194621    2.13072473515657    3.53988737818055
C        -1.94610899537415    2.52581901870746    1.33502652662354
C         2.91456386432355    2.99619590525245    4.31338092070730
C         2.28746346626341    3.99907753913263    3.33961321324721
C         2.49514097210551    5.47015378855757    3.73967520370837
C         2.11168038790696    5.69396370185830    5.20202762995841
C         2.93183135606822    4.78196997021504    6.11900294651998
C         2.56812266824493    3.33715059399639    5.77098570457303
C         2.01581086057509    7.34922905911800    2.22876068538451
C         0.89313582101799    7.90408544138679    1.30296910126371
C         2.76068798596139    5.12270227913057    7.62446006370933
C         3.36187292674763    6.50538913442008    7.90774986331672
C         1.29065813708452    5.12117095817326    8.04932290677129
C         3.52322476112098    4.10504427819047    8.48294495462765
H         0.18376641163325   -2.15154180464091    4.76908520095120
H         1.54236245674280   -0.99307629237560    4.76157974501508
H         0.00693381134743   -0.52317648223532    5.48284105165715
H         0.46727214662427   -2.30181060878031    2.28953745974747
H         0.50110142546647   -0.78026256938509    1.35717504680094
H         1.80859858330261   -1.13814604144872    2.47083326848324
H        -1.69116647723916   -1.69726553595223    2.97904870887018
H        -1.87212432265049   -0.43193736470001    4.21147030793478
H         0.74104719629622    5.80485592707669    2.70641935096229
H        -3.06184139479792    0.05873932969704    2.05306466317508
H        -1.48486160930439    0.10254182370028    1.23693063619270
H        -3.79759234748800    1.96711545635980    3.20544432970440
H        -2.59539037274716    1.59524141150300    4.47095716718338
H        -2.61437302035858    3.18942547363995    3.73859917079095
H        -2.92510292955284    2.38271418849810    0.85870697587963
H        -1.83104800330156    3.57161273107020    1.61060780281011
H        -1.15656503594401    2.27546855185175    0.62874812325193
H         4.00772490511735    2.95298170438274    4.18358532649801
H         2.71251226794930    3.82828260878919    2.33197618053243
H         3.52973994505770    5.77685291920646    3.55957983564786
H         1.05165476065551    5.46113491280072    5.30766512879866
H         2.27135376922193    6.74579076669069    5.43654032341638
H         3.99341241634251    4.92717791883020    5.88044966929658
H         1.49394665820531    3.17106100592394    5.88890380854813
H         3.09649878490000    2.62496772300564    6.40217426268720
H         4.40620138186846    6.53845892386693    7.60601542315547
H         2.82770662980628    7.29197511239610    7.38309076423494
H         3.30784891612101    6.72295523251074    8.97225341330589
H         0.74462398441856    5.93085581906664    7.57343962675115
H         0.81280658115693    4.17996376279184    7.79279874385564
H         1.21989062698729    5.25554041493165    9.12682547552302
H         4.53658142216687    3.96975867792135    8.11200822335539
H         3.58260448323348    4.45852193505686    9.51019993591530
H         3.02180908514162    3.14184954836296    8.49279739341943

