53
CSD_code = HOMXAK | q = 0 | S = 0 | Stoichiometry = C22H20N2O4PtS4 | MND = 4
Pt       -0.00097868155749    0.00052959460264   -0.00257405170801
S         1.09056714011324    0.37518023862427   -2.04989029542162
S         1.85856912029303   -1.43649568304823    0.03046083298991
C         2.21450104139446   -0.78788659336840   -1.50879362480389
C         4.20818918903983   -2.15910943209995   -1.75293683575628
H         5.23532939598433   -1.78472378703570   -1.79974040933882
H         3.95426093548899   -2.38476792927973   -0.71210705883702
C         4.10189302392431   -3.39187352944476   -2.59020819092631
C         5.03377009492047   -4.07404654308800   -3.31672955360245
H         6.07380938118223   -3.83679255182170   -3.41010283845687
C         4.34888690166443   -5.15926696556674   -3.91514889146922
H         4.76442973190286   -5.90882321877245   -4.55628152371019
C         3.05566323001015   -5.05068658406739   -3.50971717762771
H         2.18581968959955   -5.64117689894907   -3.71795091234389
C         3.50231386872016   -0.61104381645103   -3.55124669024191
H         4.57445800177983   -0.52941615868750   -3.74026995678490
H         3.04304450854132    0.38213907565778   -3.60074694477098
C         2.88618907304285   -1.50898817345601   -4.57603961003938
C         3.42317027878695   -2.19770172566749   -5.62465525422676
H         4.44918008036993   -2.20453043423280   -5.93045271334033
C         2.34972200601960   -2.90094401973985   -6.22301120951119
H         2.40003232091049   -3.54781694336627   -7.07425607361321
C         1.24737835290552   -2.58947159336323   -5.48983022735628
H         0.22179521516097   -2.89011129403635   -5.56986738264235
N         3.30394731826381   -1.11831753046945   -2.20454602343462
O         2.89838270779823   -3.98933557718868   -2.70621584475233
O         1.56275822736992   -1.74836793094448   -4.49622250312219
S        -1.09265627917107   -0.37420975288784    2.04469146558990
S        -1.85899251275769    1.43915656540003   -0.03483563520292
C        -2.21488455651471    0.79096574555099    1.50464131769216
C        -4.20602114069155    2.16561173149474    1.75067291536395
H        -5.23381062149180    1.79266662148353    1.79496896308062
H        -3.95036143831164    2.39378412002315    0.71082927865516
C        -4.09911329563284    3.39595951422221    2.59136325819235
C        -5.03115351674554    4.07782868640082    3.31793214350116
H        -6.07172507872151    3.84198769905804    3.40887822995123
C        -4.34562466453394    5.16057873364465    3.92007632514004
H        -4.76112895446218    5.90931710626266    4.56220229848309
C        -3.05186018168534    5.05086295062683    3.51670888218083
H        -2.18144268027982    5.63945402293613    3.72790272493359
C        -3.50438691184249    0.61210087431366    3.54592296607083
H        -4.57688819403574    0.53132432022551    3.73334886815380
H        -3.04640579787095   -0.38177541007915    3.59347372119813
C        -2.88856968508808    1.50637424630552    4.57404310669367
C        -3.42631998989512    2.19297975815759    5.62364736069369
H        -4.45288116887068    2.20064905176380    5.92753902311609
C        -2.35282138386088    2.89276995363203    6.22592353344571
H        -2.40365110123806    3.53730407970904    7.07894254963652
C        -1.24961385997409    2.58122326351710    5.49410424879271
H        -0.22361517888763    2.87968929244028    5.57702251868220
N        -3.30373199520631    1.12248857364167    2.20075165324929
O        -2.89486626086375    3.99126017479977    2.71082734766366
O        -1.56455570499460    1.74349408261472    4.49750189989954

