60
CSD_code = HOMZOY | q = 1 | S = 0 | Stoichiometry = C27H28NO2PRe(1+) | MND = 9
Re        8.02746578883358    3.12246200393269   15.16505216598186
P         5.89060062108109    1.91431434652746   15.08086928513369
O         6.68798300200993    5.69670728982428   15.09636573795808
O         7.63915888808894    5.04362943714116   12.45956237026215
N         7.20333744882544    4.65699311947241   15.04873221738747
C         9.78681633031528    1.64217754597612   15.95619006728661
C        10.27483259686163    2.98353419981540   16.01859123852183
C         9.49378120156785    3.69677681329505   16.94747954119918
C         8.47015476196932    2.82446858540900   17.41148891984843
C         8.70995462044176    1.53308861631761   16.83779434295191
C         8.15882811501826    2.39594708929440   12.98054262920235
C         9.15529558304522    3.36354507218332   13.12328385406191
C         9.01540126112631    4.72487944711853   12.48311862719750
C         9.83987546175401    5.78847086127375   13.20675352085956
C         5.36178663524294    1.49406688607019   16.76419504826715
C         5.12299100964427    2.56566921099480   17.62504865150965
C         4.71252621881012    2.32891872684448   18.92219116893179
C         4.54711137704640    1.02505325653265   19.36869012164380
C         4.78437986875843   -0.03907012403938   18.51481089210210
C         5.19154102288569    0.18915731569694   17.21029354857780
C         4.47878117957988    2.85357295411015   14.43339532098944
C         3.19448979522674    2.56165019256133   14.89088245980972
C         2.10953622893295    3.24880558267254   14.37852994680284
C         2.29703612909545    4.22374455526625   13.41127602139016
C         3.57268223057054    4.50956687324357   12.95186416379639
C         4.66638546087611    3.82826218697189   13.45718369481051
C         5.89650414128982    0.35902514143422   14.14320598666982
C         4.91848219143830    0.09599100587557   13.18876566441769
C         4.93200220791706   -1.10444249812317   12.49972138719228
C         5.91763925708040   -2.04470812471743   12.75010253665923
C         6.90084689130517   -1.78313708021721   13.69188558393166
C         6.89392206002349   -0.58576286191005   14.38182000285777
H        10.26709124192089    0.83059967173652   15.43068301947726
H        11.17642402307851    3.34485852944610   15.55152416179856
H         9.67406220390350    4.70098520598850   17.29519155835592
H         7.80976205852319    3.01705261895064   18.24220038111343
H         8.19088717505224    0.63164523227088   17.12327622768015
H         7.31299648899400    2.61767888705194   12.33956689380096
H         8.43333093744202    1.34594860127396   13.01369536656982
H        10.18510433720560    3.05781723526342   13.27466096805904
H         9.38776051896587    4.62881264093661   11.44670755287810
H         9.73713746886347    6.74973305812538   12.70876813568231
H         9.49551005282724    5.89034336779638   14.23498571207003
H        10.89138896856403    5.51757008972533   13.20717680272499
H         5.25903802502541    3.57608745686431   17.25791869472731
H         4.52192230133693    3.15695730292275   19.58765542393101
H         4.23092645426499    0.83995854688961   20.38348096858917
H         4.65066623372899   -1.05203946293992   18.86252524411086
H         5.36640688099866   -0.64308154321959   16.54288001312140
H         3.04668015125649    1.80048788386681   15.64409278889169
H         1.11660403930175    3.02362899404015   14.73623302194697
H         1.44796313715966    4.76072040315498   13.01778102652791
H         3.71877129079794    5.26797192981452   12.19886770914233
H         5.66279285626960    4.05513007426404   13.10485272551467
H         4.14960360686346    0.82671593251277   12.98818567818241
H         4.16896339198247   -1.30479002977901   11.76365309904746
H         5.92373664413158   -2.97935785869791   12.21142996393028
H         7.67210272386662   -2.51311275069513   13.88661283616844
H         7.66520357422277   -0.38414009687545   15.11187346021291
H         7.53913362678930    5.98286045246383   12.26253384753445

