60
CSD_code = HOMZUE | q = 1 | S = 0 | Stoichiometry = C27H28NO2PRe(1+) | MND = 9
Re        5.96602642956083    4.72602852889374   10.42124738725239
P         7.39800368273540    2.76534885085060   10.80781757898154
O         6.41774406633705    5.74486896377591   13.10715462485640
O         1.82445810602683    4.25734280254160   12.23826030064481
N         6.21539301250860    5.28789479466342   12.05666286114814
C         5.63170268719906    4.99640236935266    8.03746212693955
C         5.17304499749615    6.18924637042593    8.67576742960788
C         6.27061840851742    6.81051271242411    9.30063495019062
C         7.40674506556122    5.97530792203134    9.10958880403364
C         7.00782804992303    4.88896336085671    8.26405159366661
C         4.29761807678721    3.14329374602300   10.69689985162962
C         3.69276775675441    4.40008427902591   10.79706271241388
C         3.08147309365246    4.88028570669046   12.10907999839922
C         2.98365249007357    6.40152836419362   12.17282013153572
C         9.07423813192283    3.10243553799330   10.20563542598146
C         9.72949105692825    4.18981211934733   10.78425821773371
C        11.01552166826524    4.50601534134351   10.39340812919282
C        11.64981628803226    3.74466976045887    9.42126973417872
C        11.00035155414593    2.66407027594898    8.84821862514307
C         9.71124859432970    2.33665383330140    9.23677265906280
C         7.67790916944728    2.32958196380125   12.54805532877749
C         8.86198464983450    1.68593120526591   12.90442095754965
C         9.07857316054496    1.32372267554850   14.22126311528635
C         8.12193593154190    1.59903735278317   15.18574926829278
C         6.94093315992939    2.23260836909538   14.83242643547019
C         6.71502957685466    2.59680627403992   13.51712100857254
C         6.84330155436190    1.22947614930226   10.01613312363573
C         6.65493781231585    0.07001098072412   10.76320943445764
C         6.23503200131300   -1.09181796450773   10.13912758085133
C         5.99449053984843   -1.10606882938027    8.77511732267377
C         6.16913602785618    0.04924109430139    8.02852631791169
C         6.58562499656634    1.21350034152842    8.64556356872094
H         5.04620169538135    4.38567210035212    7.36662269163502
H         4.18791981380726    6.61486793846166    8.57667425869166
H         6.26836698061518    7.77425844661692    9.78267329032768
H         8.42813418472006    6.24457326884132    9.32775646401230
H         7.68808636628690    4.18056657240702    7.81750745043443
H         4.33107779888714    2.50741826255944   11.57572619448772
H         4.23066913149991    2.59208908269965    9.76286476458950
H         3.17763326032071    4.79342227309723    9.92269113393883
H         3.66904890938844    4.50395566119600   12.95481994569073
H         2.50856821370106    6.69896251553892   13.10332388438566
H         3.97437996350531    6.84740170561620   12.13100277679131
H         2.38871412787211    6.78201691475283   11.34377156401855
H         9.21668207745320    4.77110896669119   11.54178756658017
H        11.52599642184588    5.34375136949866   10.84314901303282
H        12.65323465742969    3.99398848316526    9.11313307127582
H        11.49810183443912    2.06998391059208    8.09716571038178
H         9.21021366724786    1.48658001123704    8.79535349491275
H         9.60864457550277    1.47089748187713   12.15290019219048
H         9.99687288686361    0.82740534896375   14.49480340935318
H         8.29757441330775    1.32020456306676   16.21293277377730
H         6.19596724875429    2.44639004878926   15.58270130356076
H         5.79550208220706    3.09224561265476   13.23520780875563
H         6.83979331070259    0.07676308389509   11.82687380214649
H         6.09435874611273   -1.98883498084307   10.72188735267608
H         5.66812589293003   -2.01400069696531    8.29258915340799
H         5.97878379439685    0.04074418492240    6.96591338844906
H         6.71440508844408    2.11331637949016    8.06085813578402
H         1.17691105920562    4.70485623818416   11.68032279992447

