81
CSD_code = HONCAP | q = 0 | S = 0 | Stoichiometry = C24H30Cl2N18S6Zn | MND = 4
Zn      -12.00690733800742   11.63847707114857    5.87324219176386
S       -12.69434654473563   13.06840022184220    7.88228022177440
S       -10.30912682366263    8.16610267439901   19.90971370197262
S        -3.32635633961993    4.25094167683195    9.55781437886433
Cl      -10.27301113635703   10.31798046270086    6.51132559405155
N        -5.13621496602885    5.58291781347592   10.87099974826526
H        -4.75135428059359    5.07607340378257   11.66997126409390
N       -12.49334037807749   12.77386799104648   10.46991920239346
H       -12.10394845393283   12.34278903981905   11.29379518424333
H       -13.17815382200978   13.50590746094670   10.52678676394501
N       -11.16602297297302   11.36795054441076    9.24437117018312
H       -10.79454773864862   11.01633273526592    8.33823893299567
N       -10.72983586136244   10.80332714886042   10.39394703146325
N        -6.13859146870763    6.44684629634272   11.01136349296741
N        -9.44435572078621    8.28799074978255   16.15448032489611
C        -9.30038335336600    8.71727204877818   13.81827963560857
C        -6.64360153551983    6.66034498517537   12.16424246231365
H        -6.26994465936821    6.14632222206760   13.05600366974195
C        -9.84511468841799    9.88852098984526   10.29063880292820
H        -9.45555767280347    9.59366490164433    9.31422008788507
C        -9.31127125292890    9.19784990115313   11.44437696851971
C        -4.56521471820365    5.33070750820067    9.65616150954499
C        -9.85648115959549    8.93755223444773   15.13550109997036
H       -10.65334927345704    9.68386090897952   15.22087236530657
C        -7.73143392592802    7.59661115384947   12.34690795071731
C        -8.25376552451174    7.81445480330802   13.61851995537025
H        -7.85583792050934    7.28645112330911   14.47080582401221
C        -8.27220808770887    8.29005619028134   11.26258306565430
H        -7.86971970862792    8.11387393510023   10.27797046015842
C       -12.07455238955077   12.34590870247029    9.27595858302399
N        -9.98629752352458    8.51694107587338   17.34999362352738
H       -10.72788223925077    9.20799682389996   17.47510241055384
C        -9.81886860765208    9.40994960623967   12.72731578415938
H       -10.62838357014840   10.11084158161132   12.85802652781787
N        -5.06734634686493    6.00044547547923    8.61006693360588
H        -5.83617885959314    6.63476455973029    8.75251566492410
H        -4.68838395805271    5.83888999357949    7.69496820586529
N        -8.62311514293443    6.92494965834295   18.29584758361446
H        -8.25057262367987    6.77051429729417   17.37362692313337
H        -8.31074449276710    6.38788372848284   19.08381671940463
C        -9.59257072916154    7.83570285850584   18.46521032780046
S       -11.31755391418205   13.06826802619779    3.86247102295377
S       -13.70337878770811    8.16617192351826   -8.16495106007732
S       -20.68598100554421    4.25095635519286    2.18702213586545
Cl      -13.73977961265636   10.31868909777468    5.23184431333274
N       -18.87614002975773    5.58294093787870    0.87382756149707
H       -19.26104720173820    5.07614095429482    0.07485086276018
N       -11.51902850495789   12.77378745179959    1.27490800475065
H       -11.90861216980760   12.34283161937799    0.45104793146008
H       -10.83432516422428   13.50593909968247    1.21797130164545
N       -12.84607683862062   11.36773776554768    2.50054610478811
H       -13.21774693899934   11.01641418838507    3.40661161640549
N       -13.28239216744347   10.80316472771245    1.35097222165856
N       -17.87375671180887    6.44684881495207    0.73345412795646
N       -14.56807275437631    8.28803704430960   -4.40969944940368
C       -14.71198215995309    8.71727529454153   -2.07348243494030
C       -17.36878977239700    6.66038327336052   -0.41943901896917
H       -17.74246206131759    6.14638024988222   -1.31120591855232
C       -14.16724326617283    9.88848270445228    1.45420942048015
H       -14.55651720265656    9.59332935530276    2.43066945600964
C       -14.70102620658465    9.19777956015378    0.30045081892171
C       -19.44709972805542    5.33069353969533    2.08868486748198
C       -14.15593559494564    8.93759901472814   -3.39072035143628
H       -13.35909848713722    9.68394017385372   -3.47610011854825
C       -16.28092640394912    7.59661038030764   -0.60209535858769
C       -15.75863562363229    7.81449637266381   -1.87371828978404
H       -16.15661270368478    7.28653466018191   -2.72600921635535
C       -15.74008877253190    8.28998150405463    0.48224550353200
H       -16.14255188266150    8.11377428767241    1.46686233404021
C       -11.93750134662494   12.34565210615054    2.46890654681596
N       -14.02618192406122    8.51701744863019   -5.60522703607786
H       -13.28463262702105    9.20810833005554   -5.73035542591580
C       -14.19341941123530    9.40987658958927   -0.98250126771636
H       -13.38390884980374   10.11077152859084   -1.11322750646831
N       -18.94495206846986    6.00040760371687    3.13478697831598
H       -18.17612357990653    6.63473215235657    2.99234502066178
H       -19.32389879337333    5.83882924725644    4.04988835906911
N       -15.38930136484781    6.92493982201471   -6.55105495217230
H       -15.76180132326342    6.77046683322316   -5.62882395335652
H       -15.70162719509315    6.38782861396992   -7.33901139617454
C       -14.41989603922451    7.83574478866692   -6.72043610487001

