65
CSD_code = HONJIE | q = 0 | S = 0 | Stoichiometry = C28H33ClNPPd | MND = 4
Pd        9.68776556659109    6.62947845701396    5.03794677343067
C         8.48050387013370    5.66945308205159    6.32994114637928
C         7.60877474078551    4.57241154355264    6.15173954723597
C         7.55993721924451    3.82606016051916    4.84817920539406
H         8.10287631749736    2.88486289546098    4.94868999826320
H         8.03200783081326    4.40436813961400    4.05177669969144
H         6.53517976753272    3.58706836519201    4.56852572433607
C         6.86204674360460    4.12122402352511    7.21215916765040
H         6.19392291960798    3.28035738647843    7.07680688814371
C         6.94458297074031    4.70943814896991    8.48692994167722
C         6.14245453393995    4.26353649522209    9.55757406548336
H         5.43382013050819    3.46837831234829    9.36836295412800
C         6.24234977168176    4.81237615155664   10.80704547636066
C         5.39318057551278    4.34541893781182   11.95006830747570
H         4.79016212756309    5.16745015108702   12.33516268646931
H         6.01981711882683    3.98336393248629   12.76487922892477
H         4.72884565497188    3.54288527677886   11.63937417707131
C         7.17298029127362    5.84928892067959   11.01500102686830
H         7.24817449358113    6.29025449936104   11.99947160905100
C         7.96849470485180    6.30346883092804   10.00276005273812
H         8.65801187657383    7.11112210658325   10.19966059746980
C         7.88505945302989    5.75116293361984    8.70535152229495
C         8.66063711041954    6.18305822849238    7.60241446617725
C         9.77364515905881    7.20344914373803    7.73451046731772
H        10.18636521699815    7.22832163480846    8.75608489802513
C         9.22338476845779    8.59136345145542    7.37333098938182
H         9.01429171315805    8.64029836069070    6.28794664960766
H         9.90994747025878    9.38961672461266    7.64815478984320
H         8.28744829064789    8.74589612475259    7.90759250101275
C        11.43993805420195    5.51704879521662    7.24082328451870
H        12.14621273538711    5.16427706364914    6.48639996920624
H        10.66545039214465    4.76203412732262    7.38017925806937
H        11.97673827219951    5.64687676375053    8.19138082121571
C        11.91735290465495    7.78161025357742    6.73091305592030
H        12.30219888211950    8.00907403759289    7.73486633808009
H        11.55938199015580    8.69589861731142    6.25719709459089
H        12.73335833328246    7.39633844092060    6.11846835349351
C         8.36140858114213    8.42047594454602    2.36290872182780
H         9.22879722328492    9.02738529608523    2.16658957828751
C         7.08802567667407    8.74554892670740    2.07497266546168
C         6.66007239794700   10.01534867168782    1.42012332274224
H         7.52258221425724   10.63782503624566    1.19734840747903
H         5.98600344703253   10.57023780740816    2.07208987293059
H         6.12837373137851    9.80619486440980    0.49220126077981
C         6.11581453898423    7.71940904173913    2.46057776277995
C         4.65472176623920    7.91488206592207    2.23241322941999
H         4.09408888320081    7.05212576275829    2.58271138333954
H         4.44996830720142    8.05991251986582    1.17200564505560
H         4.30391388442048    8.79937470149235    2.76306376175925
C         6.67338408016143    6.62517482425791    3.00941244855830
H         6.11839004268262    5.77647285452153    3.36809679638522
C         9.18033215190945    5.68841353164470    1.95821700960730
C         8.78087249795599    5.69483738236964    0.62831846153257
H         8.01921808869049    6.38987579967694    0.30321899036830
C         9.36650706038784    4.81728278989094   -0.26609021259983
H         9.06248572839713    4.82309245737581   -1.30277822051336
C        10.34546434657062    3.93552621647587    0.16350260655114
H        10.80363112584001    3.25596582561321   -0.54004602096304
C        10.74203836005835    3.92647070826203    1.49132902122648
H        11.50832701250430    3.24046254448096    1.82156030520118
C        10.16037091932497    4.80029746876205    2.39133737007274
H        10.47423207616838    4.81554648999191    3.44423385391807
Cl       11.18965593642388    7.74524640593985    3.61786258037065
N        10.85177199302601    6.78232651862106    6.80079795594433
P         8.45964795614020    6.82689702447162    3.18345170949218

