105
CSD_code = HONKUR | q = 0 | S = 0 | Stoichiometry = C39H59Br2N2OPPd | MND = 4
Pd        3.91090422990655    1.93760954204414    2.94686636394428
Br        2.01689887922617    1.03998874158029    4.25205869129289
Br        5.76135536536934    2.35703342751079    1.38562866943717
P         5.06247875078333    2.70987416342302    4.78025096445127
N         3.06113834767190    0.21486219311399    0.61896211307697
N         1.77256265702678    1.94867083322645    0.92639420388479
O         5.21848139379124   -2.19442278500365    2.45179735303803
C         2.86638384316671    1.31154829888663    1.37675948534015
C         2.07888393138287    0.14850083923667   -0.34848837783542
C         1.24641448685315    1.26494493874824   -0.14750126515279
C         0.15335497232340    1.49999756113504   -0.96778038764323
H        -0.47658276522296    2.36262120595474   -0.83228506305347
C        -0.08447616044736    0.59122047776008   -1.98040769985905
H        -0.92635362173488    0.74415925905104   -2.63783935325363
C         0.73730200476147   -0.51635666082072   -2.17719597262473
H         0.51614716438164   -1.20055548110252   -2.98186518128070
C         1.83211668013740   -0.75579435583547   -1.36961567928204
H         2.46611203777701   -1.61215383500479   -1.53837592905222
C         4.13432574380740   -0.73699841680763    0.78919830562955
H         5.09041918761367   -0.27969883327852    0.50519647120523
H         3.93956407712757   -1.58311080416742    0.12862665890472
C         4.22652620256607   -1.22336044905032    2.24996219491633
H         4.52900271948879   -0.37286450301383    2.89587101866831
H         3.24117544566794   -1.59361778966623    2.57746140163817
C         4.88369966843156   -3.48952975762486    2.01800600519095
H         3.92251258389511   -3.80921289597500    2.43777866924905
H         5.67316308876544   -4.14406092729161    2.38197154599367
H         4.83835674175109   -3.56134762762313    0.92588884133567
C         1.16102918852075    3.08306753372438    1.59930268366388
H         1.90404792308969    3.47792443511051    2.32056331848136
H         0.31602340676547    2.70641396892471    2.18007432778244
C         0.73280801673099    4.17324042131604    0.65062512757790
C         1.70218001873115    4.79547597858644   -0.14060934540718
C         1.30446596312606    5.75717509473171   -1.07198329621180
C        -0.03367578790228    6.10055393207443   -1.14991584977570
H        -0.33827147951936    6.84691172164463   -1.87044463929478
C        -0.99759156205660    5.53170782223585   -0.33073152677185
C        -0.61583171537136    4.54631682914801    0.58054336964427
C         3.15296315824698    4.44550858402152   -0.00849015266757
H         3.40592858335970    4.14608761792380    1.01115576281950
H         3.78315939272950    5.29272323816275   -0.26232173780720
H         3.42192921830131    3.62481124859616   -0.67509013227394
C         2.29309482516788    6.41865659260627   -1.98474616682609
H         1.77785288350491    7.03248123201970   -2.71933624835258
H         2.89193260666242    5.67693604200892   -2.51036104173420
H         2.97024973026208    7.06121145162861   -1.42169629846836
C        -2.42112774226871    5.99229055402219   -0.46367773928824
H        -2.49417998640677    6.76363106129723   -1.22626917239566
H        -2.78474697520216    6.40885664258575    0.47492686575575
H        -3.07591962832816    5.16999578238950   -0.75091204577047
C        -1.63655429091209    3.89895451074267    1.47814967751575
H        -1.39905238831432    4.08581104953360    2.52514795844819
H        -1.67280828774395    2.82020419328527    1.32488750449425
H        -2.62903616827249    4.29121349565544    1.28938545491455
C         6.11717015156154    1.39227873782318    5.56347865980181
H         6.66499125335870    1.82213664962444    6.41172305888083
C         5.22974409681322    0.24601798581482    6.05616697479676
H         4.61898878404440   -0.12093762210734    5.22306919304653
H         4.55319737810867    0.59471549751638    6.83938862567488
C         6.06412302520072   -0.91112121078740    6.59586060148410
H         6.63092721272134   -0.57371608904703    7.46832698465563
H         5.39932938567085   -1.71439128850108    6.92001906437346
C         7.02784060150630   -1.42202015123437    5.53086169842677
H         6.46464991922246   -1.79601353435580    4.67285111716430
H         7.62382574843909   -2.24543749121908    5.92985323432192
C         7.93843163174831   -0.28712425609443    5.07731221251529
H         8.62505721386290   -0.64160104386645    4.30642494802529
H         8.53525971068860    0.06521292405937    5.92345124622608
C         7.11048812490511    0.86668328745829    4.52269588238498
H         6.55829694830290    0.50760685635572    3.64490620992281
H         7.77959048934783    1.66506264525463    4.19452791658447
C         3.92479389901830    3.25371879773663    6.14794244771132
H         3.34570397040458    2.34008240647138    6.34654064914144
C         4.52244422131634    3.71061522629816    7.47367530027513
H         5.27019806069185    3.00111325663088    7.83337343837707
H         5.00331042268819    4.68325796177245    7.35973149847860
C         3.39406809771491    3.83461550621596    8.49831774651175
H         2.93343641608214    2.85537600659998    8.64833883115523
H         3.80070183212278    4.16389170214852    9.45732854304881
C         2.33282570482818    4.82293068856718    8.01933136538894
H         2.77573933626288    5.82005498008368    7.94776206854349
H         1.52033361029148    4.87195390357158    8.74687273988499
C         1.78250879679745    4.41784930707923    6.65375563798147
H         1.26840001020029    3.45758975792177    6.73053973900048
H         1.05892226032302    5.16031955870363    6.31008212289652
C         2.92356149658158    4.29723034918987    5.64910724608711
H         3.40687483057953    5.27006090178681    5.54394298953491
H         2.53184328528827    4.00618198567077    4.66431304817319
C         6.27322535948509    4.05802075996536    4.35919698089025
H         6.90585701560752    3.57572357279044    3.60005549707461
C         7.20090724685518    4.59620672037922    5.44267075136297
H         6.64138514146814    5.19202459926396    6.16510646698287
H         7.69220679391483    3.78287299430428    5.98003959550239
C         8.25641738795906    5.48330287909070    4.78085629831945
H         8.93143896245739    5.88283529253827    5.54130420443145
H         8.85026452978058    4.88186943193116    4.08862419954633
C         7.60066950939473    6.63120743024214    4.01629770189875
H         7.07329248509078    7.27894148151788    4.72197168437125
H         8.36846009875197    7.23168024028549    3.52452805952039
C         6.61059339965327    6.10459401209231    2.97993157667731
H         7.13941433145793    5.52019974455277    2.22422997748869
H         6.12039244022502    6.94066708069907    2.47637820258895
C         5.56924230572675    5.22198983283430    3.65963832088329
H         5.01661056236767    5.82221399391414    4.38478194457337
H         4.85250794095087    4.84114834660979    2.91891478895490

