62
CSD_code = HONLAY | q = 0 | S = 0 | Stoichiometry = C29H24FeO8 | MND = 7
Fe       -0.06802918952653    3.97170832368145    0.72354310888835
O         1.97189964337436    5.72149239423831    3.01157197673413
O         4.49048424782460    2.20067124944401   -2.69365257278772
O         2.96511384205600    2.88271011164380   -4.18898419955961
O        -0.07161119449992    2.87492842354135   -2.34416474210522
O         1.15310097326277    1.04539115532564   -2.75247959239757
O        -1.64228598252333    4.77304311848531    3.08126992301610
O        -1.95989725783097    5.02235056826552   -1.22125902260055
O        -1.08951334533429    1.27722676036563    0.29645750831124
C         1.81383492733079    5.10180417821316    1.97906222664185
C         1.45857367628104    5.63292064532017    0.61859525904463
C         1.78258396632432    4.60160977625328   -0.31521419516606
C         2.08249342922041    3.40204668383366    0.38782979270517
C         1.92686279130789    3.61477345499163    1.78386056251198
C         2.26653125709088    2.71233953475542    2.88163474816798
C         1.80750279906364    2.98640586804844    4.17101447070106
H         1.19399338379364    3.85719499976758    4.33940707947866
C         2.13124766027278    2.15877662528612    5.22687212982363
H         1.76498127649218    2.39274491660195    6.21620393247565
C         2.91570449598966    1.02822510618542    5.03642319860512
C         3.27280920388108    0.12337683630512    6.17507616814976
H         2.77982056326658    0.43698500098478    7.09154876808888
H         4.34989082093672    0.13266013684291    6.34055391727571
H         2.98055661473133   -0.90230515642591    5.95339511088803
C         3.37169631003357    0.75345856803919    3.75170996935356
H         3.98717573071661   -0.11923381460089    3.58326790206648
C         3.05479387782653    1.57603266231778    2.69008732605724
H         3.43857915419539    1.34217469522696    1.70997980265136
C         1.25637396043683    7.05596999383686    0.35327359224294
C         0.87545577574638    7.91496983981474    1.38676208193378
H         0.73333462450481    7.51874432071354    2.37904737468486
C         0.68660062183069    9.26207174871119    1.15369267531222
H         0.39503684619278    9.90528235937327    1.97166212250068
C         0.85794783557685    9.80277763015057   -0.11429645862060
C         0.66273626098487   11.26479394097992   -0.37295718544948
H         1.62633315819675   11.74823017364062   -0.53616390611508
H         0.17640472284388   11.74799107947481    0.47056136020263
H         0.05816198952293   11.41985892336536   -1.26499866007891
C         1.22856479484090    8.94771603878192   -1.14625470752286
H         1.36492905526140    9.34654744677929   -2.14191998494864
C         1.42334362834595    7.60044767208767   -0.92228844596323
H         1.71149619159777    6.96909518610971   -1.74671503106850
C         2.13894508800698    4.46070815247869   -1.76675405060390
H         3.08421846128161    4.97428501792680   -1.96812529282960
H         1.37545973589772    4.82922570836233   -2.45101818335834
C         2.31079164098648    2.92850444335638   -1.93565417812364
C         2.66209222605367    2.37489126062929   -0.53316274064369
H         2.28348203338583    1.36305362919148   -0.38956938289001
H         3.75360901369819    2.35178381863373   -0.43697466596686
C         3.39351243093551    2.60799382666517   -2.95861265910995
C         3.88615829526408    2.64294307900928   -5.24802260243077
H         4.84731205412631    3.11013660941882   -5.02648910398189
H         3.44268575593134    3.07637670411805   -6.14041275830335
H         4.03583575099730    1.56966877383631   -5.37751209426416
C         0.98978286162932    2.30928231513244   -2.37749355799992
C        -0.03112795702999    0.34218380383008   -3.11821607036040
H        -0.71474970220084    0.29195349391725   -2.26887501147594
H         0.28807585351849   -0.65335325809207   -3.41419891246359
H        -0.53040349455629    0.85066988022529   -3.94450644155746
C        -0.98603183605273    4.48692913460420    2.19214429357358
C        -1.20124116293324    4.59726736254112   -0.48432836265252
C        -0.67812019037954    2.33078706745588    0.47916639131216

