67
CSD_code = HONMUS | q = 0 | S = 0 | Stoichiometry = C34H28CrO2P2 | MND = 9
Cr       -2.68733384938169   -8.15455043636507   -2.80257829838536
P         0.11925582457737   -9.57018077221639   -4.44999942882549
P        -1.59890593244394   -6.67758620372588   -4.28535900929629
O        -1.45806206835376   -7.36999847294616   -0.20933413122399
O        -4.37113046142424   -6.11403838248736   -1.44995251911815
C        -1.66594268073891   -9.64400359915321   -4.06169561941814
C        -2.57992638245996   -8.88019480304138   -4.84426756652680
C        -3.93539120631941   -8.87398944650192   -4.51908889931987
C        -4.40156767500324   -9.53334728081260   -3.36267844654166
C        -3.52440385824392  -10.31865152663253   -2.60684433373483
C        -2.16578816344636  -10.34316907207993   -2.94155123286645
C        -2.09418832365199   -7.76239585624123   -5.74396392235191
C        -1.13118262389491   -8.08874479754128   -6.87932081092178
C         0.21195028039536  -10.89178302261609   -5.73073937093777
C        -0.77060902087306  -11.85758501924568   -5.91255337848396
C        -0.64083817484202  -12.80049767246026   -6.91651309941626
C         0.46675538515398  -12.78648857089975   -7.74799601915707
C         1.44805676547212  -11.82334665792322   -7.57629913837853
C         1.31696250517584  -10.87753743936116   -6.57703978449460
C         0.83851035792521  -10.47735052725614   -3.02923857847939
C         1.54921166532961  -11.66520787601785   -3.16507445292838
C         2.14208801280412  -12.25105434372582   -2.05990030781641
C         2.04170049176775  -11.65728878067314   -0.81345924312875
C         1.34826221986206  -10.46519384114410   -0.67370164588377
C         0.76029630952676   -9.87377791671199   -1.77454731093261
C         0.17394666185108   -6.25001693169440   -4.44502612109680
C         0.97872112229101   -6.46167589156139   -3.33168978456932
C         2.32481056087310   -6.15122261851693   -3.37973263991559
C         2.87058490343670   -5.62706684363028   -4.54087066697295
C         2.06548447163934   -5.39338174695938   -5.64421237659575
C         0.71636008081620   -5.69528631383436   -5.59867480220119
C        -2.27862208984892   -5.03306937146824   -4.69743639439831
C        -2.46435261832466   -4.19408290963302   -3.60109114880774
C        -2.95695449686598   -2.91565768943731   -3.77763123146173
C        -3.27112912062859   -2.46639617608060   -5.05129304823619
C        -3.08646535000954   -3.29576788459267   -6.14425790455454
C        -2.58922230313756   -4.57634100047008   -5.97251494716397
C        -1.88122079812449   -7.70812933413326   -1.24197588085006
C        -3.72360080624512   -6.89658681067482   -2.01448827063517
H        -4.64051912700920   -8.32869774680357   -5.13741625348261
H        -5.46005276438870   -9.52441779226729   -3.13299781011371
H        -3.88710582303851  -10.89768086295570   -1.76621154116794
H        -1.49791783059266  -10.97642831809947   -2.36861262256520
H        -2.98774664694204   -7.28544386496294   -6.17078308130811
H        -1.19545555140089   -7.33187073169158   -7.65958142417635
H        -0.09577151363007   -8.13552124558244   -6.54550304047623
H        -1.39204675276438   -9.05041192033021   -7.32333867522705
H        -1.63828048157529  -11.87873431908869   -5.26629278374761
H        -1.40692496192220  -13.55120649775141   -7.04999154012491
H         0.56402887615762  -13.52484056236569   -8.53030724328853
H         2.31225535321200  -11.80925455379231   -8.22460100477428
H         2.07624604940896  -10.11860688393654   -6.43632988509405
H         1.63584147311756  -12.14094460576371   -4.13179665150173
H         2.68386351839975  -13.17898695713824   -2.17576453974067
H         2.50370599465228  -12.12102987979132    0.04564151845235
H         1.26485710497369   -9.99273454567332    0.29362489595167
H         0.20780796017143   -8.95089476783617   -1.66343281972625
H         0.52565233270824   -6.86044988256541   -2.43412795678846
H         2.94897672923158   -6.31826492217501   -2.51461534911688
H         3.92374409792422   -5.39124800696214   -4.58447276961473
H         2.49086458286942   -4.97061529537713   -6.54310158580019
H         0.08527300343112   -5.49154353302319   -6.45140545353252
H        -2.22708778231385   -4.57321951218503   -2.61439285736236
H        -3.10375562431949   -2.27041058554224   -2.92471936125416
H        -3.66302795436374   -1.47001626393665   -5.19243912822204
H        -3.33140564986539   -2.94459796877237   -7.13657392302467
H        -2.44933822676825   -5.21138413316473   -6.83646534714548

