76
CSD_code = HONMII | q = 1 | S = 0 | Stoichiometry = C37H34CuN2P2(1+) | MND = 4
Cu        1.51284711842848    5.19897210789941    2.53353960549111
P         0.76553467504839    7.32808360424553    2.86847543142813
P         0.08074983324878    4.05979276289772    3.84343667843531
N         3.52136433100001    5.63863848225817    2.64856720614762
N         2.06276671866927    4.61757206301863    0.69359060159024
C         4.06235373593637    5.66453510300589    1.42258992430305
C         3.34842244453241    4.87462107067019    0.41354856777577
C        -2.67727953793376    3.74150529407445    3.17768650892285
H        -2.92394424676211    4.55641839443539    3.84132770243715
C        -1.36462443805587    3.30659486800349    3.04124860505292
C        -1.40696418341852    6.80977910681068    1.27331212265596
H        -1.10074740624810    5.77885241717638    1.41968434612659
C        -0.65233080946060    7.82785758229984    1.84923740085811
C         0.49020170026108    0.73138572522771    6.19235406222044
H        -0.14429384962584    0.02019533894817    6.69926561644854
C         0.74578720363256    2.66958016362548    4.80557124817293
C         2.12878023437484    2.54519569424927    4.88475393110431
H         2.75071069885205    3.25803203654938    4.35513170076712
C        -3.68568036846558    3.11752462384847    2.46181121978649
H        -4.70560232654288    3.45301510588615    2.57576758790093
C        -1.01562445991656    9.15689328173416    1.66035266861562
H        -0.42138912932942    9.94643688053596    2.09952551995963
C         5.20057550841216    7.13152920496993    3.42696251691035
H         5.62434664418832    7.69093018418570    4.24455522898940
C         5.19081490933007    6.43129955691975    1.14274926314181
H         5.59747762236796    6.46389874286748    0.14511778951740
C         2.45245259379862    8.88276419634165    1.41579775565659
H         2.05242175695133    8.28997956673468    0.60132297434717
C        -1.07638859686439    6.50904667316002    4.82813099758602
H        -1.67807234384757    6.88955723577491    5.65871745288954
H        -1.72555824128699    6.46344236170414    3.94923759405077
C        -2.52989917386020    7.11584447798655    0.52721383969261
H        -3.11909053777612    6.32447730277006    0.08815333299074
C        -2.89207714084452    8.44079047483289    0.34298306434191
H        -3.76541349633044    8.68334535983452   -0.24283033795906
C        -1.07325335639109    2.25848172929924    2.16709583344855
H        -0.04476483010037    1.93296461090683    2.06472205730229
C         3.93936203940613    4.40973940119184   -0.75937515653828
H         4.98219736755038    4.59707625328224   -0.95713889536881
C        -0.07644236109997    1.75669615217536    5.45837973109746
H        -1.15127081185920    1.84591555653922    5.38175110615698
C         1.84099026436331    3.43517687311473   -1.35492966040504
H         1.21232563935395    2.87769513674565   -2.02964190693879
C         3.17485463118889    3.68148974645187   -1.65338223531506
H         3.61115150511216    3.30881330137388   -2.56718313621933
C         4.07729264004252    6.34885338703303    3.61957043903666
H         3.60147374473062    6.27485467590891    4.58879643258582
C         1.33185851375769    3.92085868283383   -0.16391404634939
H         0.30116332228790    3.75076082033945    0.11728146511763
C        -0.59535728891807    5.10634727819454    5.21329989558008
H        -1.41095750745989    4.54333934335125    5.68153616467198
H         0.21312621614954    5.18323719909961    5.94936064159494
C         1.86919113442613    0.61342594007280    6.27725689798325
H         2.30478636250804   -0.19016228554324    6.85107277793588
C         1.93829143884791    8.69857360726023    2.70006892274364
C         0.04914958415055    7.51284753149704    4.56319137561520
H         0.85409632570227    7.37489730639472    5.29139719907812
H        -0.33744216030891    8.53479571967224    4.65249529446951
C        -2.13394696781378    9.45711240350488    0.90419256695137
H        -2.41811494575769   10.48763131604784    0.75370328388730
C         3.95237503168899   10.55404577872940    2.24532557160788
H         4.73172114509396   11.27982187690324    2.07088105937265
C         5.76341634403016    7.17604726557110    2.15846768830497
H         6.63391894649016    7.78330864408961    1.96546475602079
C         3.44764801211074    9.81132605118258    1.18823570407866
H         3.83377364167298    9.95713154793542    0.19048238712934
C         2.45776147323474    9.43518303795699    3.75850511214494
H         2.08290104291998    9.29578731745820    4.76153541584168
C        -3.39362482419081    2.06883597629849    1.60649544862293
H        -4.18529222895654    1.58630109843913    1.05429055768373
C        -2.08333271917251    1.63773014698194    1.45966304376762
H        -1.85355934403481    0.81903472736268    0.79425691143194
C         2.68919750215698    1.51885038544945    5.62335332745280
H         3.76259871267688    1.42074181318391    5.68642129690722
C         3.45625430032189   10.36526578191419    3.52403182889117
H         3.84925502221042   10.94507981813961    4.34579311448979

