84
CSD_code = HONMOO | q = 1 | S = 0 | Stoichiometry = C39H38CuN2O2P2(1+) | MND = 4
Cu        3.49109961718583   10.29308056196724    3.84210121655428
P         5.23680976962208    8.89189425714387    3.63326864226741
P         2.78891147837963    9.73745056474262    5.96295008502218
N         3.43491557850042   12.22106634197425    3.29017963870276
N         1.56423755088765   10.35556883205228    3.05500188134145
O        -2.40001264274093   11.38122707333174    3.47554200218292
C        -1.13482033460190   10.97522961164123    3.32257976158150
O         3.05627654036324   15.99278515745502    1.69368550252648
C         6.89591833282320    9.53192284449980    4.00725502856218
C         4.63273007075617    7.61848052008375    6.13855273506588
H         5.23996114825853    8.41417246399945    6.57927605392910
H         4.84128002346973    6.70092010739967    6.69655240874761
C         5.48704635543639    8.12295053883258    2.00614100293970
C         3.72405272216913   10.54379990629151    7.29646940401266
C         5.04266535778848    7.37870459752189    4.68189830722871
H         4.28524517069351    6.76644286318853    4.17956358718537
H         5.98869481935888    6.82690948352892    4.64059122324936
C        -0.17678908235633   11.97838227980575    3.13355790207466
H        -0.50326432196652   13.00458644622895    3.13085048959018
C         2.23418857025148   12.62177221670056    2.85781125852687
C         6.64579666109709    7.42536814554868    1.68092326558438
H         7.44892563759348    7.34630107257387    2.40053177652254
C         4.46266285562000   13.05887512036692    3.20305791594967
H         5.40922952208148   12.69034129408957    3.57347499673888
C         2.02771342164003   13.87978508934090    2.30633301589348
H         1.04978952913395   14.14725177553424    1.94370054400993
C        -0.69520658910032    9.64825015931749    3.34218862061834
H        -1.37756129378605    8.82463830702483    3.46486849366959
C         1.15576208073383   11.63302679716110    3.00328139884858
C         3.28046658273120   10.58688211680281    8.61383363122447
H         2.32106993772650   10.16144515417142    8.87461954303061
C         4.95219328512406   11.10353019878420    6.95648600450002
H         5.27640611099035   11.07406916045645    5.92121228811296
C         3.10514608123771   14.76133222173090    2.20624437114283
C         3.15285331448787    7.96024857391288    6.33044544389668
H         2.86116676295037    7.76689495792918    7.36926920273065
H         2.53698071934860    7.34285220110431    5.66957469192045
C         1.83197181296097   16.49292435455724    1.19363514750127
H         2.05168390284694   17.49663259584042    0.83599524447725
H         1.07374887535817   16.54605839945073    1.97954212319650
H         1.46339404790201   15.88467046520251    0.36330676662208
C         0.61579491408576   11.28352319121341    6.49132026249010
H         1.33221891711516   12.07918071066536    6.32476609179314
C         5.74226815685401   11.68736276592882    7.92930769443334
H         6.69862504547328   12.11317256818503    7.66437995118799
C        -0.71029467840915   11.57190459457971    6.74220568098968
H        -1.04516373227393   12.59764490382054    6.77653395136220
C         7.67924042792377    9.15918873109201    5.09269363165241
H         7.34879377299980    8.39265416428538    5.77705706947033
C         4.46113589439600    8.24602162681810    1.07514001725781
H         3.57437587634871    8.80862010783603    1.34458324062446
C         1.05864027651708    9.96052031907741    6.45812071638245
C         4.35329479069089   14.32468761903687    2.68044396119003
H         5.19963305149340   14.98753224090302    2.62047143414397
C         7.34602907240877   10.53225902585557    3.14477957165702
H         6.72306545387140   10.81709956373020    2.30515250949978
C         0.65684925451422    9.40454434924852    3.20969309160430
H         1.03611343367676    8.39112527611922    3.22476279782772
C         0.14490066379736    8.92921812186597    6.64345305531557
H         0.46372946119599    7.89844070246325    6.60298744853582
C         6.76658584088784    6.84786487358902    0.43068267767444
H         7.66471682940798    6.30676983576879    0.17379272170078
C         9.35278889403104   10.75366798677729    4.43209266377140
H        10.30997921381974   11.22363487353867    4.59792874929730
C        -3.41140780298149   10.41737524993823    3.69273681487724
H        -4.33219108127628   10.98345088895097    3.81708796328418
H        -3.21297837650321    9.83622032558415    4.59723705341402
H        -3.51176360518568    9.74668201554293    2.83534736352705
C         4.07002747298793   11.18199823648121    9.58069487275743
H         3.72773704705356   11.21912336890979   10.60391476874510
C         8.57100482730362   11.13446604132607    3.35138354291977
H         8.91888761440071   11.90014701103146    2.67424936304700
C         4.58719103995117    7.66334876091208   -0.17287724401811
H         3.79202045591411    7.75744763204174   -0.89727838882997
C         5.29940189023785   11.72642456206298    9.24180958252386
H         5.91140489865744   12.18548018788217   10.00307086978876
C         5.73945501231149    6.96384573697680   -0.49352629703672
H         5.84096764176358    6.51157354717751   -1.46822830459570
C         8.90526563366058    9.77026330741953    5.29753337274005
H         9.51406201849176    9.47353274965449    6.13850497563110
C        -1.61360877268727   10.53954683974805    6.94734259624232
H        -2.65014052313452   10.76356924515178    7.15018318505896
C        -1.18424565549322    9.22390902177576    6.89602078094045
H        -1.88745054922426    8.41943228973785    7.05649152160570

