75
CSD_code = HONNAA | q = 0 | S = 0 | Stoichiometry = C36H30F5O2PRu | MND = 9
Ru       -2.76723601036334   -5.03602679219279   13.58115432799097
O        -4.63783819939309   -5.30105598450709   12.89360022538490
O        -4.21427035638319   -4.05367503678744   12.65539032791654
P        -2.01350617174261   -4.66479866278855   11.42636199843779
C        -1.47288770051452   -2.94754759657287   11.19126505647212
C        -2.39148840387921   -1.93083573432682   11.45083739399486
H        -3.39940529302610   -2.19791944851971   11.73679972250348
C        -2.01092072809716   -0.60690547767087   11.33724811699448
H        -2.72642347241731    0.17856999644698   11.53402301095911
C        -0.71195392814356   -0.28576984719689   10.97168195709834
H        -0.41468315203063    0.74899918913859   10.88605097470606
C         0.20299829724705   -1.29312223343090   10.71494857362256
H         1.21392725182892   -1.04387835665496   10.42743904699143
C        -0.17179467705701   -2.62162956095924   10.82354698946349
H         0.54267849754926   -3.40577425106651   10.61797014660310
C        -3.27795737641699   -4.95501049917318   10.16140261212200
C        -3.55935274612017   -4.04142109818379    9.15133754402907
H        -3.00412892054371   -3.11590232982128    9.08393188597164
C        -4.55503231098647   -4.32329026990301    8.23275128633065
H        -4.77543525989721   -3.61396410744086    7.44796290622357
C        -5.27145037508695   -5.50574986461149    8.32186641098646
H        -6.05399719732284   -5.71485751591457    7.60709852423330
C        -4.98727814279290   -6.41761255475832    9.32597642969060
H        -5.54619689262057   -7.33843389622159    9.39546318473161
C        -3.99036728104093   -6.15012129726304   10.24605852445835
H        -3.76018227485700   -6.85183671085877   11.03768538763418
C        -0.60757621613555   -5.66804200070815   10.84232545183232
C         0.45236025664639   -5.87658041473252   11.72010751663371
H         0.42288174225206   -5.40064747126927   12.69050477012814
C         1.50550372644155   -6.69655563964708   11.36637391154814
H         2.32119407631479   -6.85984592324259   12.05564459973939
C         1.50567286817546   -7.32200521564545   10.12831609099054
H         2.32038033057266   -7.97600582227407    9.85414309808941
C         0.45910290694544   -7.11102420093034    9.24696373849922
H         0.45703983843830   -7.59982291582517    8.28400963664429
C        -0.59701556396832   -6.28685675638529    9.59917842058324
H        -1.41903760516320   -6.13809009504835    8.91471699089968
C        -2.19534090485517   -6.88718174250840   13.14362214037744
C        -1.67550488765579   -7.92891381926613   12.79610234599372
C        -0.98369552203635   -9.07053732553904   12.36025465437356
C        -0.02475571305336   -9.69348932532358   13.16925324776078
C         0.72370523420512  -10.76942910984217   12.72181651682812
C         0.53036658982539  -11.25631871764176   11.43181013112938
C        -0.41766687389915  -10.65700200669779   10.60598778056206
C        -1.16271697602825   -9.58445756933117   11.06865081724830
F         0.18577013625896   -9.21967269764655   14.40895826596644
F         1.64012694895110  -11.33594276815926   13.51709143357740
F         1.25722573078424  -12.28794635388839   10.98560193247621
F        -0.59535282460515  -11.11625589649432    9.36096640173174
F        -2.06453166608000   -9.02004676287186   10.25582332223462
C        -2.71589617352671   -6.85780354135522   16.41837215972948
H        -3.72685224150404   -7.24231801016021   16.30366988339269
H        -2.51132002285776   -6.72449199757918   17.48310798678806
H        -2.02212579453112   -7.59669324956794   16.02352435827518
C        -1.29014740489241   -5.03819861008383   15.20819785916266
C        -1.48858181144080   -3.66362848452354   14.83986472103113
C        -2.85588224953742   -3.34798130823753   15.07300548791709
C        -3.50641046759753   -4.50218799200788   15.61682327528610
C        -2.55127671524094   -5.54859660936901   15.71012362092666
C         0.02965616515489   -5.71235169832909   15.44323487029925
H         0.20766387344794   -5.78247517460434   16.51780600116618
H         0.84772668146695   -5.14903548962941   15.00065710248949
H         0.03614760211843   -6.72157534187171   15.03507851535092
C        -0.40361617062065   -2.68890570785784   14.49568030653383
H         0.38657512313742   -3.15938136520694   13.91323722996138
H         0.03585188757081   -2.29920517812794   15.41658997712416
H        -0.78921503500164   -1.85079033028483   13.91906789907448
C        -3.50718083718963   -2.00830906871310   14.94842458966399
H        -4.46120369065144   -2.09541779131063   14.42836293380746
H        -2.87771512495390   -1.30925873385931   14.40243165594090
H        -3.69852913124151   -1.60191633999108   15.94390436913481
C        -4.93101986014843   -4.53001491545179   16.07010716314257
H        -5.15036425572814   -5.44927180272679   16.60770238433705
H        -5.60390812712635   -4.46819482239743   15.21208641571413
H        -5.13422902733293   -3.67965594459752   16.72216345235962

