61
CSD_code = HONNUU | q = 0 | S = 0 | Stoichiometry = C32H27NiP | MND = 7
Ni        4.64382781646794    5.14438349898467    3.22637039490669
P         3.99838975651210    5.25694453627024    1.19193741806883
C         2.98370527206573    5.65568181744678    3.84223846506699
C         1.83974063051781    5.95810704373234    4.11897280108253
C         0.50295306931810    6.29093544088282    4.44568086203291
C        -0.49237823795935    6.16661520721755    3.47321513943457
H        -0.22295591669077    5.81949043502660    2.48559348472618
C        -1.80007570896623    6.48298006034740    3.77575111754515
H        -2.56407224447809    6.38243411533824    3.01666432677382
C        -2.15569493851454    6.93170145217858    5.04455882668242
C        -1.16184923085519    7.05470961519889    6.00685120097577
H        -1.42070639579601    7.40206053505287    6.99788357131681
C         0.15201601806095    6.73983854659502    5.71776486776908
H         0.91693598623493    6.83892847184817    6.47407303549797
C        -3.58430449327944    7.26623078637389    5.35324410353432
H        -3.68169388190705    7.67184390937139    6.35734841522294
H        -4.20725106383253    6.37471050747078    5.27889648947368
H        -3.96713219054295    7.99824693689015    4.64288783727477
C         5.47238208348437    4.80471899494888    5.03106258300032
H         5.03386318349806    4.78570334194038    6.01853013300908
C         6.16877100217243    5.93452654698497    4.46877302290817
H         6.27594224238169    6.89788984885907    4.94161596933055
C         6.75710645209024    5.51188616591930    3.28652512044234
H         7.42575150302670    6.08310666441586    2.65986743595337
C         6.47171028417522    4.10976907366696    3.12165516952760
H         6.90875374721770    3.48477330920887    2.35426446153883
C         5.76232562816801    3.66210431798402    4.23990052351551
H         5.51891127475926    2.64036751883376    4.48457548346142
C         5.03437947268604    4.39906759971966   -0.03756604149337
C         6.25323970555609    4.97260569937154   -0.39234968331124
H         6.52236439001587    5.93859459198368    0.01471941825663
C         7.10553795404454    4.31524943808645   -1.25824501667413
H         8.04787202512219    4.76594514471943   -1.53430087147591
C         6.75428288374141    3.07404854497651   -1.76696309780529
H         7.42305129437016    2.55765845605099   -2.43970174619296
C         5.54929393165280    2.49421613188812   -1.40670668776581
H         5.27787211470288    1.52429916013777   -1.79796140048083
C         4.69124902115176    3.14962051888105   -0.54062250071602
H         3.75323631926311    2.69516976407255   -0.25335778688851
C         3.89435553594849    6.94170099342915    0.51323207115015
C         3.73289030471495    7.98810106845380    1.41486530357453
H         3.69685311871395    7.75773234477571    2.47572043459224
C         3.62517103820616    9.28871142723917    0.95746841477054
H         3.49911228344051   10.09881842118142    1.66022616044765
C         3.68503689089159    9.55083141352980   -0.40175988809521
H         3.60483220516155   10.56612571277389   -0.76127270782345
C         3.85583243734962    8.51171926682452   -1.30280306953360
H         3.90873668485776    8.71805789999889   -2.36206202872494
C         3.96161672527651    7.20839199869480   -0.85125182933082
H         4.10918728216645    6.40071396513675   -1.55560706917173
C         2.34401330882234    4.56005814103639    0.87703912279910
C         1.92308159347299    3.53893790457071    1.72410722897854
H         2.57587924438859    3.23543406847318    2.53716429263326
C         0.68423541461186    2.95323406611690    1.54825563615538
H         0.35876662691478    2.16608293871255    2.21175599055203
C        -0.14584534610413    3.39023324927317    0.52768795843331
H        -1.11984028276621    2.94289093813695    0.39451440017754
C         0.26745995136892    4.40963359765391   -0.31405359525707
H        -0.38410982133772    4.75593984475030   -1.10322039833136
C         1.51063118581246    4.99523833588326   -0.14485721246174
H         1.82205285845943    5.79894865444664   -0.79579606105892

