69
CSD_code = HONPAE | q = 0 | S = 0 | Stoichiometry = C26H40ClCrP | MND = 7
Cr        6.30959115963740    3.44009167655971    7.95460839692035
Cl        6.85942431537475    1.41505707852592    8.44348247397891
P         7.59840782788836    4.81791348650355    9.17879614187293
C         7.61980539608395    6.60243403741520    8.75517645334210
C         8.01141454734054    7.51638673919046    9.73452170143509
H         8.32258981277837    7.15762911341284   10.70249266248488
C         8.01682493686194    8.87835366110811    9.50486274402866
H         8.32755902121393    9.55752388993107   10.28497207014431
C         7.61805037741321    9.35934219496724    8.27116596615473
H         7.60729232349480   10.42062327120481    8.07246135961761
C         7.23409457943139    8.46614470105192    7.28968553771457
H         6.92858779674060    8.84911435029121    6.32550072069194
C         7.22741899298569    7.08932777493808    7.49929385570981
C         6.85925985809584    6.22983315689980    6.31435724982621
H         6.37282938379624    6.87740499910682    5.57379603925260
H         7.79424021957777    5.88479676178368    5.85803954492864
C         5.98941390732982    5.03444508008462    6.56891429340608
C         4.85629291747295    4.97283452918806    7.43819390107186
C         4.23247454977608    3.70959672627813    7.22073067588727
C         4.95066664613578    3.01792081879314    6.21142863520114
C         6.03259997749609    3.83431460212546    5.80008491684929
C         9.76996276272016    4.12025947197326    7.64911468876941
H         9.07578342065765    3.38995585918319    7.22938198673356
H         9.70286884690375    5.04694652477208    7.08106381759644
H        10.78313628942244    3.73359369784592    7.55218625951153
C         9.42603908111811    4.37292770186756    9.11495530041825
H         9.49355617831774    3.41546449565570    9.64795279447827
C        10.39973911248590    5.36665040867865    9.73757780559120
H        10.34270642702594    6.33121452743634    9.23688391970250
H        10.20513896799150    5.51016675280751   10.79765356552126
H        11.41694552828669    4.99043831994934    9.63505737503252
C         7.20214810160017    3.32668388680158   11.44615620092422
H         6.48064448400898    2.79541703789263   10.82000349922763
H         8.16622507584994    2.83206034727416   11.34429183623410
H         6.88682560751300    3.24232047268510   12.48501971060145
C         7.27596523954352    4.79283416212475   11.02851818735779
H         8.07566231345652    5.28155735170841   11.59449756282605
C         5.94060856417940    5.47546866620432   11.30425097959325
H         5.96984129638170    6.53206654480696   11.04702201405487
H         5.16456508000928    4.99949856064146   10.70686423120180
H         5.67311493042399    5.38389829293042   12.35577427276714
C         6.99458698927930    3.54045347722193    4.68972973726593
H         8.00185907630202    3.86556366407648    4.96753128298062
H         7.03726851356335    2.46390769815389    4.51070130914618
C         6.59203664762611    4.24616035942454    3.39114344406687
H         7.28840556183314    3.99873499997965    2.59267092226167
H         5.59393740531293    3.94205106175145    3.08530337618359
H         6.58971671267206    5.32507105740523    3.52587022242806
C         4.20436499012824    6.14183258237861    8.12002568240885
H         3.57625210108271    5.79545439492745    8.94404619286277
H         4.95559991071617    6.81553139610061    8.53621486441185
C         3.33626637463243    6.92256825610996    7.12789408650689
H         3.94752001800513    7.31847357193132    6.32064563260512
H         2.57800608951364    6.27460246224013    6.69328034673313
H         2.84096050836716    7.75436602331485    7.62464040444346
C         4.57060564219444    1.68358395783686    5.63972655519384
H         5.46140397802145    1.15715594801186    5.28843277492086
H         4.11704251321494    1.06512009292551    6.41801379328513
C         3.58449188202719    1.83432013221056    4.47821085657898
H         4.03907831967185    2.38802455561136    3.66032241772489
H         3.28339307083699    0.85718274622730    4.10636563108083
H         2.69488719852765    2.37302155127195    4.79845050803508
C         2.99648877464533    3.21178689082102    7.91088370209639
H         2.31572777908644    4.04461553905876    8.10554642663249
H         2.47232317115663    2.50278845428437    7.26653313012481
C         3.33851513382757    2.52228004243600    9.23524869606598
H         4.04118069783763    1.70668155747137    9.06857686119866
H         3.79376907973752    3.23109474752102    9.92483075616209
H         2.44179600536736    2.11816104672053    9.70076903795002

