59
CSD_code = HONPAC | q = 0 | S = 0 | Stoichiometry = C24H32P2Pt | MND = 4
Pt        6.18985638311709    5.73907696502997   -0.00023538583469
P         4.77741089391360    4.62779938707625    1.37439657112207
C         7.30198783780702    6.19531114096557    1.59175698014523
C         7.96841055432899    6.45842639743200    2.57110049302620
C         8.75166623798252    6.75908231392888    3.71129139117797
C         9.18230113585598    8.06480390926274    3.95801822255256
H         8.91253389289778    8.85016073304507    3.26492960950862
C         9.93804175709588    8.35126852562251    5.07569687286183
H        10.26345344638423    9.36732298093280    5.25595110831613
C        10.28979772050040    7.35344584841185    5.97916408687668
C         9.86310318388045    6.05493636786251    5.73053319611854
H        10.12724572997346    5.26595311960988    6.42229366526598
C         9.10467730125916    5.75652158315021    4.61612563776084
H         8.78061289042748    4.74037603626493    4.43459176680723
C        11.12541483252680    7.67845712168838    7.18116820717238
H        11.09542552651446    6.86862448740018    7.90674763254942
H        10.77440997440028    8.59162599556676    7.65949610491764
H        12.16438515683149    7.83466466910271    6.88715302130622
C         3.63307966567657    5.80992617108078    2.17470034700345
H         2.93881615944017    5.29082597142594    2.83458684813518
H         3.07781482488347    6.34185701319758    1.40297403225301
H         4.21798291051980    6.52898522793200    2.74645554187642
C         5.46843454155249    3.73372404051884    2.81384023666278
H         4.66913538351024    3.33311043000431    3.43642148686628
H         6.08071557102679    4.42494050934714    3.38932910186565
H         6.10080842479815    2.91994450477036    2.46250603500395
C         3.62553058703729    3.38594150550138    0.68012927023843
H         2.94387581233720    3.01991134130125    1.44707974853517
H         4.19968257640388    2.55508834579256    0.27380294633359
H         3.06428676481093    3.84277960433791   -0.13231933315925
P         7.60158101097416    6.85126361094120   -1.37431786155740
C         5.07742774882731    5.28209411185446   -1.59172309024824
C         4.40893293863122    5.01945705220428   -2.56970789600274
C         3.62835425589519    4.71614381362795   -3.71098032532988
C         3.19943828190135    3.40956856819871   -3.95623857092566
H         3.46935862339725    2.62550786167596   -3.26168484733248
C         2.44486616727059    3.12068287255388   -5.07408422545317
H         2.12034056188247    2.10410028783834   -5.25290580022124
C         2.09279285047190    4.11682860772219   -5.97925812265562
C         2.51799737816849    5.41614527471866   -5.73220016830113
H         2.25337419931931    6.20389094308582   -6.42518353955233
C         3.27520855119821    5.71699170971738   -4.61762610579022
H         3.59795625612170    6.73372396094366   -4.43724542586401
C         1.25829770494665    3.78921764640265   -7.18133099626896
H         1.28829301068888    4.59787617211518   -7.90821668140370
H         1.61034518628637    2.87551173655523   -7.65785875935697
H         0.21919762930726    3.63275315756842   -6.88789488903767
C         8.74320418625758    5.66602874461240   -2.17392083718198
H         9.43851985644274    6.18340496506601   -2.83402674102435
H         9.29745103877847    5.13339577533707   -1.40193929859874
H         8.15696439793040    4.94779595606483   -2.74537711907724
C         6.91142949874392    7.74507019235497   -2.81431683334463
H         7.71131733358457    8.14372794202372   -3.43738768152790
H         6.29780476282565    7.05442064625585   -3.38908760168405
H         6.28060202110470    8.56024487184242   -2.46345304271178
C         8.75571805948121    8.09131972901300   -0.68073474642821
H         9.43785921628514    8.45561476117801   -1.44806274308286
H         8.18306540855693    8.92336104348268   -0.27475262497760
H         9.31620418703076    7.63376573748318    0.13183113168235

