71
CSD_code = HONPEI | q = 0 | S = 0 | Stoichiometry = C32H36ClCrP | MND = 7
Cr       11.82327942838658   11.79128349641485    9.63379626775504
Cl       12.39879031589527   11.22998850603120   11.59382863100370
P        12.74165285129223   10.37004616387361    8.14724129667947
C        13.24034575660759   11.01662681481902    6.51168257944334
C        14.50939129317131   10.75954213862944    5.99831560999619
H        15.18286857861034   10.11424552304496    6.54422909707170
C        14.91782828205112   11.31780018802306    4.80116417627073
H        15.90430726091771   11.10520857529723    4.41665658095107
C        14.05889269579218   12.14798891525284    4.10312823759445
H        14.36710876391301   12.58849876363102    3.16655648897708
C        12.79951230324024   12.41608207943546    4.61138484773470
H        12.13241029075211   13.06634232669493    4.06141062530417
C        12.37490111428476   11.87164377950806    5.81563582846256
C        10.98489923174408   12.16058757392085    6.31552718817881
H        10.53117307784221   12.92007390128871    5.66699098522913
H        10.39536548209484   11.24293609550542    6.20717965991899
C        10.89165492241588   12.61699654219989    7.74792905505268
C        11.67231767894116   13.62555698621239    8.36587324482322
C        11.15942198692511   13.82705239724789    9.67975056881700
C        10.03478065969913   12.95192369349292    9.85147950828258
C         9.87009410415191   12.21229286931881    8.64849301153685
C        14.22392441498514    9.46376411271602    8.70477395276962
C        14.53282106927537    8.16713109260605    8.30114113200363
H        13.88860731805718    7.65347834800778    7.60079323745390
C        15.66126341068243    7.54007849265187    8.79749355834491
H        15.89779090918275    6.53406683254198    8.48211453024645
C        16.48592449032638    8.19613240611833    9.69740663943322
H        17.36496437902659    7.70089026448735   10.08263560750126
C        16.17878456772009    9.48397040200301   10.10823517897604
H        16.81614967308571    9.99208826803521   10.81662696622269
C        15.05151397601259   10.11487611955575    9.61665695844303
H        14.78881808578864   11.11490659219345    9.94348371645959
C        11.66382689317896    8.96558734561942    7.67486411934409
C        10.95638327307331    8.38787057722636    8.72679047150955
H        11.11341091919930    8.77650665572876    9.72853074197110
C        10.07491094049442    7.35164410136148    8.48986139153630
H         9.53431087305246    6.89928007059633    9.30820641376043
C         9.87699002362545    6.89887519268312    7.19302201725298
H         9.18148527758887    6.09489411711531    7.00222666329878
C        10.56539541548731    7.48008731528294    6.14128551514897
H        10.40660586448010    7.12842357302493    5.13184432727459
C        11.45926216679276    8.51125744345497    6.37715114311519
H        12.00173073994281    8.96207190835602    5.55655338358115
C        12.78962071059657   14.41159309874094    7.74315388107269
H        12.67009879669130   15.46905010060823    7.99464339894072
H        12.74355007434607   14.32290248008168    6.65575417325742
C        14.16773028035004   13.94553106477601    8.22019066424338
H        14.94836297435388   14.57599988491754    7.79985179040498
H        14.34855414753947   12.91906392659977    7.90590890796670
H        14.23397537605644   13.98701710913575    9.30492854533643
C        11.58481956905679   14.92220735780241   10.61370132432706
H        12.65330081056192   15.11393575465039   10.49359751321431
H        11.42255894723048   14.61688651721398   11.65098682351980
C        10.81949726277616   16.22222129423095   10.34852366603891
H        10.94514589801996   16.53638901427005    9.31449344742465
H        11.18255090615391   17.01557004826200   10.99862923670868
H         9.75733038243355   16.08596322169554   10.53435783447552
C         9.13032144008040   12.90271852229343   11.04854375447393
H         9.65676431824398   13.31112254805016   11.91484729038600
H         8.88594610673843   11.86141276552993   11.28097089184302
C         7.82711899539251   13.68039672367199   10.84674934025351
H         7.21623872500924   13.21593153595826   10.07754920574688
H         8.03289842469703   14.70493283314358   10.54519098823595
H         7.25459596654704   13.70197564591773   11.77181932734493
C         8.74734629240039   11.26897651124878    8.33378612488209
H         8.26922844425953   10.95005090395797    9.26188688363485
H         9.13265929134882   10.36949137119074    7.84275851413363
C         7.69525207603132   11.91441749059660    7.42558900692894
H         8.12209214708974   12.16314717934027    6.45734345702576
H         7.31564949202266   12.83162327244440    7.86958303339025
H         6.86132138418162   11.23317326245213    7.26930982005656

