83
CSD_code = HONTOW | q = 0 | S = 0 | Stoichiometry = C32H48ClCrP | MND = 7
C        14.05587628881342    5.67849302421137    7.92231369797298
C        14.63511272923097    6.93844898250967    7.78094893137908
H        15.45962092643794    7.23324651186039    8.40879586099407
C        14.18521445084259    7.84902435833504    6.84241562699827
H        14.65931097839736    8.81630447747195    6.76340531171423
C        13.13274439507859    7.51466314827687    6.01203996148035
H        12.76928601340814    8.21471848206717    5.27481193634771
C        12.54852418257210    6.26804942884055    6.13586272189458
H        11.72937832875487    6.00429636399255    5.48071897701338
C        12.98456168671218    5.34383135981107    7.07765820868290
C        12.30587540239956    4.00068134430913    7.10590276716551
H        11.42574580093499    4.04623292980134    6.45295684408040
H        12.98533376323410    3.26617516336358    6.65913760876409
C        11.88456043716884    3.49986822229285    8.45798351692834
C        11.90590968647059    2.13363806457455    8.82912314561473
C        11.31162469925941    2.02027168144111   10.11362242023771
C        10.92454455904383    3.33439001491634   10.53486508797761
C        11.26058119746368    4.24928204286136    9.49133903366969
C        15.75498845570560    5.50910745710160   10.27265966582943
H        16.42304750461885    6.13184616747671    9.66734670711975
C        16.62067885780690    4.64800682037048   11.19277350565389
H        15.98613489781469    3.95571588233365   11.75125070295384
H        17.33319439632895    4.06372311672871   10.60820672935275
C        17.39633031974319    5.52514485660467   12.17469239017414
H        18.00020349564703    4.89187910327325   12.82745819733735
H        18.07600838839396    6.18080081139110   11.62242235100790
C        16.44259195080804    6.37224382666690   13.00872182260942
H        15.78852613147090    5.71355411860036   13.58286880461627
H        17.00595176639487    6.99040598029367   13.71071013516312
C        15.59508552328275    7.25084079361639   12.09560186297575
H        16.24343577248276    7.93866370520095   11.54563207308425
H        14.90044081047872    7.84892416585495   12.68841948795122
C        14.81746995180607    6.38108345240194   11.11385266162288
H        14.20087113588687    7.00762205355319   10.46401191048883
H        14.14616844261567    5.71662262547059   11.67054039831840
C        15.75938259030970    3.46340761163505    8.09624478560612
H        15.14010515361167    3.25620349695937    7.21135430610296
C        16.06687644470891    2.12449443897930    8.76447052052051
H        15.13022898610340    1.67048105247998    9.10908755751795
H        16.69642169911367    2.27595651951232    9.64188406796549
C        16.78983742736420    1.20762645911440    7.78209282019778
H        17.02980728887663    0.25771245105660    8.26349200193412
H        16.13895019097003    0.99601120268335    6.93000542148745
C        18.06962000102791    1.87702015368844    7.28564388726309
H        18.74374798131784    2.03454117119295    8.13069109196212
H        18.57718327418853    1.22576148171225    6.57112812246963
C        17.76021136341116    3.22099917061219    6.63006324751065
H        17.13173992407701    3.05914755443371    5.75084144487760
H        18.68667894433756    3.69210060090445    6.29469736942640
C        17.03492811898661    4.14439492529880    7.60850885767975
H        16.78938055892495    5.08939886421168    7.11679976242529
H        17.69615841835249    4.35840937850410    8.44920493252776
C        12.30738285862407    0.98732612337594    7.94916343810528
H        12.54589025184496    0.11425878296297    8.55882956304367
H        13.20376736119770    1.23812564903483    7.37446323886275
C        11.17981849698431    0.62175120404474    6.97836652603166
H        10.94378644565693    1.46362985427252    6.33190028511564
H        10.27955125394101    0.35457429271975    7.52703731084377
H        11.46962278933623   -0.22272877276006    6.35632287973122
C        10.95173101302863    0.72392179030227   10.78468621781498
H        10.56988250204390    0.02871986944415   10.02983784876940
H        10.14854166372727    0.89664731458483   11.50461352385323
C        12.12539836326629    0.06516522925303   11.51371116037027
H        12.95915291588438   -0.10641453787035   10.83502418647098
H        11.82021397492466   -0.89170969657997   11.93344157443609
H        12.47443182775241    0.70081687763300   12.32387300905699
C        10.13152000196902    3.64510972589667   11.76994720671060
H        10.38325947971281    4.64594393213737   12.13148932822227
H        10.39960515851890    2.93977690612805   12.56126414338800
C         8.62320342299085    3.56858483470381   11.51689967015697
H         8.31928717704653    4.32224739859331   10.79490151480366
H         8.07327314015250    3.73606032862569   12.44075293640790
H         8.35087241259940    2.59119902871695   11.12371229654543
C        10.85393123514384    5.69234924204861    9.42555725558971
H        11.68540678313867    6.30883582324121    9.07312316753578
H        10.58790719892363    6.03972827779411   10.42603668634009
C         9.65893421183598    5.90563106256800    8.49202916028626
H         9.92815119804793    5.66576775631665    7.46719650694662
H         9.33225614675043    6.94290649279397    8.52551917464519
H         8.82617994786429    5.26911887940847    8.78246857646551
Cl       13.79440702856710    2.91954439246464   12.33447447733731
Cr       13.04908096386368    3.33218206148665   10.36665457243646
P        14.62886108141262    4.47986280582327    9.19822130101823

