66
CSD_code = HONVEN | q = -1 | S = 0 | Stoichiometry = C34H22Cl2MnN2O5(1-) | MND = 5
Mn        2.24641962948481    0.41357702922698    9.80107486499550
Cl        3.24967991863480    6.90223086900820   11.36966418147491
Cl        3.69141187311823    5.42609645576139   14.08650878972785
O         0.79110725284056    0.21602676419026    9.91833113832223
O         2.78446022732555    0.10730531292637    8.13918455847803
O         3.08923925543468   -1.06386271758941   10.29646613876032
O         2.91922743012731    3.58743723755526    7.50162932915016
O         3.83032326690196    0.36176238762419   13.44627678266314
N         2.60790413964938    2.18749256801632    9.31486537022320
N         2.93557167298093    1.04178077710219   11.42668860566382
C         3.88911521079802    1.08012954416274    6.30146280070967
C         5.14352364886681    1.26142325792103    6.87324582600115
C         6.28844946937644    1.16613730556840    6.10526740392435
C         6.19469247273328    0.88251219314449    4.75293955930354
C         4.95026690438161    0.68681369258715    4.18085545071780
C         3.80245850818618    0.78088709004894    4.94970131910927
C         1.35171938707031    1.16396661174099    6.49321441169631
C         1.05706003071677    2.17883149320982    5.58779620370362
C        -0.16434195758039    2.19734274340752    4.93983687201107
C        -1.10157593092785    1.20790781191523    5.18976409546658
C        -0.81398614216335    0.20408024555682    6.09869813339518
C         0.40689858119599    0.17921956652143    6.75057820995887
C         2.68135579183076    1.15912934718428    7.22128544093017
C         2.74383262882229    2.49286608964979    8.00990896172951
C         2.81999541216874    3.08760492211912   10.34903575020047
C         2.89819079615046    4.46900240424433   10.28064279336733
C         3.16345158113020    5.17835858702062   11.44515128111429
C         3.35837060807106    4.52272432698278   12.65205879709230
C         3.29197054147109    3.13753640815961   12.73304839109023
C         3.01651090991688    2.41827402807431   11.58160268262664
C         3.39255532278301    0.15117834301413   12.32751629456406
C         3.29952060883467   -1.24953983433185   11.66729354362271
C         2.12868205725327   -1.96189096415060   12.32029258818769
C         2.03122943946867   -2.04886154766920   13.70554633700808
C         0.95623996954309   -2.69732241716910   14.28640209429137
C        -0.03140190077528   -3.25911684417261   13.49420932882631
C         0.05546348156406   -3.15939167254926   12.11615245139352
C         1.12951614097984   -2.51389217913408   11.52875212304018
C         4.63674096128752   -1.94868813504577   11.85205295667770
C         4.82409331495526   -3.07087848776533   12.64523479517332
C         6.08178809741428   -3.63902829788692   12.76221275935818
C         7.16157294235272   -3.09859439401236   12.08726394373557
C         6.97763372468858   -1.98539195773233   11.28377930957106
C         5.72450625363855   -1.41545069169023   11.16868624234020
H         5.21430116866949    1.47454831309868    7.93147951601759
H         7.25744982983132    1.31365632963722    6.56143485454388
H         7.08889020313934    0.80915076789148    4.14942311038117
H         4.87028155414733    0.45416847726957    3.12776929061746
H         2.83697922560884    0.61660461989787    4.49497960907411
H         1.78284595584533    2.95851798460113    5.41114229359914
H        -0.38763650528986    2.98930349992043    4.23822471210766
H        -2.05564569505815    1.22414343779582    4.68063283683554
H        -1.54507476155725   -0.56541743199380    6.30279899634979
H         0.64257836864262   -0.59843546814721    7.46570988507528
H         2.76466782960533    4.97843148904815    9.34029696269413
H         3.46004668864404    2.62949807098604   13.66856131533543
H         2.79035256137106   -1.59055058830436   14.32206354578797
H         0.88687947222253   -2.76132623248254   15.36370192060914
H        -0.86973328103752   -3.76661518723050   13.95180743996191
H        -0.71773385531033   -3.58723609984093   11.49368192995108
H         1.20855656452506   -2.42568702834704   10.45352225331546
H         3.98865911166677   -3.50900758576714   13.17008882900003
H         6.21628303394416   -4.51283686908090   13.38521092554940
H         8.14206603551385   -3.54463041227522   12.18267919628418
H         7.81471841798422   -1.56112808309023   10.74685039556047
H         5.56902454418637   -0.55487727633383   10.53186126994886

