45
CSD_code = HOPCUM | q = 0 | S = 0 | Stoichiometry = C22H18N2OPdS | MND = 4
Pd        6.11506293098900    1.59009627797266    4.70485035889026
N         6.91894626016486    1.94066995528934    2.69378300291383
C         4.54227760472265    2.76072029446154    4.03017725920015
H         4.08511362186232    3.53510625355874    4.65147382739956
S         4.67360008577192    3.35484990882017    2.33451424970822
C         6.08701337484284    2.50034329198992    1.79705525386917
C         6.35122124261696    2.45894291863178    0.41920179459216
H         5.64433246835542    2.91554831888521   -0.25463621408369
C         7.48941463106873    1.83920015225204   -0.03143469193496
H         7.71101463505137    1.79184619681148   -1.08684290042221
C         8.35746519823826    1.27165830892533    0.90283442936180
H         9.26693222054876    0.78274073701339    0.59350440957039
C         8.02671675613278    1.34341417281442    2.23747153542572
H         8.68174870507493    0.92328779190839    2.99302101734913
C         3.95679981689279    1.42311205493531    4.13089901384378
O         3.90436261608852    0.59559346847018    3.22059131379818
C         7.42691204773538    0.37183121597832    5.40589824897494
N         8.11861878328116   -0.46861967737904    5.83125193100608
C         8.90774922169640   -1.45078329508369    6.33366357050680
C         9.75968691141736   -2.14959684585401    5.46858221005892
C        10.55061194169206   -3.15160679522906    6.00743307342657
H        11.21482870718652   -3.70463217654397    5.36038568632545
C        10.49517979019285   -3.44917863737214    7.35841208272187
H        11.11904445620413   -4.23285471160593    7.76041328147272
C         9.64179292018979   -2.75108598434151    8.19625362875384
H         9.60145531082705   -2.99305963436898    9.24761404872321
C         8.83131159926920   -1.74201740382160    7.70257602426262
C         9.80334644236434   -1.80287726106554    4.01351162526547
H        10.29848695710646   -0.84102610592055    3.87184779685439
H         8.79582747919141   -1.72533889079511    3.60461288980249
H        10.35331305700971   -2.55619314398346    3.45621116931857
C         7.89257228968723   -0.97196180329407    8.57381704862097
H         8.14250183043750    0.08910911896586    8.55403439797523
H         7.94055615419173   -1.32531017234628    9.59990843672460
H         6.86929601423907   -1.07339053242924    8.21092748235546
C         4.87681118592528    1.31076106301652    6.28086512572273
C         3.67427215275690    1.12618548392647    5.58424565647215
C         2.50124060989538    0.76170963637271    6.21645938609913
H         1.59061056148644    0.61400858668886    5.65442485584280
C         2.53078801120418    0.59922344956607    7.59431358641822
H         1.62945039379326    0.32046626765390    8.12091143050227
C         3.70551117169375    0.79578212566141    8.30141289374369
H         3.70601619961533    0.67823460629496    9.37626724492757
C         4.88999695830019    1.13594718149051    7.65580848782378
H         5.79278867299192    1.28444423307523    8.23507303981970

