47
CSD_code = HOPDUL | q = 1 | S = 0 | Stoichiometry = C16H25AgNS4(1+) | MND = 4
Ag        5.88936603640451   -1.59939380856321    3.49017419718367
S         5.96745151070114   -3.09182291686777    5.73335777645888
S         8.25031750257487   -0.62533368173863    4.83147416605299
S         5.62591373490362    1.14702037898813    3.36094321586126
S         6.73522185034326   -1.21469821765795    0.94619447807001
N         6.87669694845499   -3.88135200770316    2.73934941380238
C         7.72663004502621   -4.30631384844444    3.85659944239408
C         6.94345205265780   -4.51853347018378    5.14621633472998
C         7.11739765881544   -2.24372997671786    6.87603625945539
C         8.40714797532871   -1.68699151360219    6.29948587393459
C         7.38585223954779    0.83152109863657    5.53067490550806
C         6.96633112431010    1.79682337454041    4.44211438049452
C         6.34836755827296    1.41338221638487    1.70792445989800
C         7.44162308126203    0.43671491152440    1.31803546998720
C         8.16276829982069   -2.31265377671174    1.29232681557187
C         7.65605372611923   -3.73465197475289    1.50160281478757
C         5.76306765170956   -4.78312287671407    2.53193270532818
C         4.47762250689564   -4.26646380509584    2.59097100991512
C         3.38088291610248   -5.08582059584632    2.39222788463743
C         3.56669285479698   -6.43293649291369    2.12891054786230
C         4.84814217575892   -6.95257678946418    2.05826446473347
C         5.94570944924336   -6.13293910773945    2.25653381568840
H         8.23495191718832   -5.25777637827550    3.63421899112225
H         8.49486000334846   -3.54048085037356    3.99466511094797
H         6.20271152159204   -5.30657461651180    5.00888037019042
H         7.61364657928533   -4.80277933152534    5.95607542456404
H         7.36411998228223   -2.95962144137735    7.66149920017121
H         6.50566935526766   -1.45596194574275    7.31636827573418
H         9.07318159513257   -2.48942940130382    5.98258313694213
H         8.91748262903341   -1.09804669844282    7.06392122008852
H         6.51658825952722    0.48112790042607    6.08689663609858
H         8.08691647072586    1.32208369913686    6.20860022243256
H         6.56970996406723    2.70294222368905    4.90219025835626
H         7.80908663960348    2.05634397990532    3.80332438411410
H         6.72209899240257    2.43755621402727    1.69103772315783
H         5.50624404027786    1.33700682677639    1.01956392407753
H         7.93405904902972    0.79073905732023    0.41102125427930
H         8.18349794473849    0.31875547205636    2.10980046032975
H         8.68423666559157   -1.93458490582792    2.17248914351286
H         8.82375826527284   -2.27836644645965    0.42671062664539
H         7.00934258879409   -3.99234673148386    0.65905878991022
H         8.51601498400330   -4.41731298519243    1.49184313875436
H         4.34345808083481   -3.19376346721955    2.78904799824726
H         2.38497546779835   -4.67443621255781    2.44114026808929
H         2.71439555325272   -7.07535806375635    1.97411134262206
H         4.99651509149283   -7.99975902284172    1.84504191294334
H         6.94056946040417   -6.54788399380129    2.18925975431160

