51
CSD_code = HOPFOH | q = 0 | S = 0 | Stoichiometry = C12H24CdN2O12 | MND = 10
Cd        3.63563974279806   12.37594607902351   11.36725288001304
O         1.70223621262351   13.11187222461910   10.97205525044727
O         2.61181731628364   11.71375978029016    9.65010850819455
O         0.72911878769782   12.56546132214608    9.17076037873027
O         4.91243945015377   10.17687146126640   10.63444762990013
O         5.24014309249150   12.48965979640288    9.02743935679057
O         3.67580403458533   14.71927498380626    9.88638728893207
N         1.67072611680734   12.46738678014105    9.91326064155444
C         5.59829912958333   10.20134319396064    9.39876377027836
C         6.27251847616775   11.55341648183009    9.21307907678620
C         5.67032355752985   13.80913280214200    8.79542696239742
C         4.39902777384925   14.65184674383140    8.67838832855393
C         4.09581459090168   15.74845547761348   10.76041656677140
C         3.98467078488977    9.11232062220476   10.69182867267134
H         6.34612202711648    9.39342937966053    9.37394543290015
H         4.88289630434558   10.06610487312696    8.57707368812246
H         6.92406636299331   11.52085383537179    8.32487125711215
H         6.87778870800939   11.80633261465736   10.09396384197959
H         6.29875928680140   14.16035368723621    9.62394699433595
H         6.24371785180513   13.86570586849390    7.85590236245655
H         3.73254316536686   14.15866278749187    7.96462972306132
H         4.64179088068133   15.66167765993687    8.32068931770722
H         4.02501109861546   16.71755010196360   10.24223710208415
H         5.12565682473031   15.58456688245873   11.09927383641094
H         4.51537831269409    8.15606164963696   10.56087184461407
H         3.23557054637152    9.22876413442103    9.89716562720704
O         5.56903700139286   13.11197190568591   11.76238274874195
N         5.60060511420205   12.46748466112317   12.82116950797750
O         4.65941338490990   11.71404920588971   13.08450877178008
O         2.35889302122662   10.17683100693796   12.10011792136051
C         1.67280347694151   10.20133400063791   13.33567406184934
C         0.99858063189744   11.55342731427582   13.52120829695104
O         2.03096829630266   12.48963296417344   13.70696643678853
C         3.17579369201338   15.74850764897774   11.97439099903590
O         3.59557135601261   14.71917679710690   12.84835282926385
C         2.87217785611922   14.65172695424668   14.05625361712589
C         1.60083319810831   13.80912081010233   13.93897295440432
H         0.97255402219919   14.16042547406471   13.11036868303962
H         1.02729229392871   13.86569083677349   14.87840926301643
H         3.53852073294735   14.15843575186101   14.77006968367498
H         2.62944792986295   15.66155117377304   14.41399212377328
H         3.24679929044844   16.71755172980450   12.49264041918175
H         2.14591661278043   15.58486237931724   11.63551791585751
H         0.34689758808921   11.52091168329123   14.40931894363587
H         0.39344617056031   11.80633246745152   12.64022762669758
H         0.92496648389537    9.39343045077369   13.36037173648426
H         2.38805088649868   10.06610859148855   14.15750060162124
C         3.28683706593877    9.11241618762110   12.04300846058751
H         2.75628462725097    8.15610111051147   12.17417427242675
H         4.03590477535906    9.22916963349535   12.83765582767636
O         6.54202405522083   12.56593803688302   13.56385995703505

