57
CSD_code = HOPHOK | q = 0 | S = 0 | Stoichiometry = C18H20N6O10S2Zn | MND = 6
Zn       -1.30015449580080    6.07517432842443   13.52975591464267
S         1.10575610400054   13.94186231311141   10.84777461355134
O         2.30922554084643   13.16314114115096   10.59522101291346
O        -0.12715183458664   13.34375089481300   10.37999865599726
O         1.21424851105665   15.36947074331828   10.69497916251714
O        -0.80695114786603    6.42155271230901   11.36941568699751
H        -0.32507907487400    5.69739558651085   10.95774382280890
O         0.89173865188159    5.61041465412253   13.70865613797444
H         1.20652336793702    4.73546346012332   13.95505114313435
H         1.51856289772856    6.25237183274517   14.05648491627922
N         0.65348469481351   12.37417578556464   12.84693343443779
N         1.56441467873964   14.39469808632131   13.59248977473664
N        -0.93498648247118    7.94827452408541   13.92463876704703
C         1.06943722667540   13.59611295734047   12.67367452072554
C         1.68399268644785   13.88036089198136   14.81035116191346
H         2.18826331003790   14.50008525039244   15.54033730439037
C         1.12536270173476   12.65798678589137   15.15420716658152
H         1.07652253563536   12.32723737974330   16.17925853568524
C         0.57452831479330   11.91325878129178   14.10468603161124
C        -0.01726160322130   10.59731852769799   14.17550157717346
C        -0.86515743749835   10.20302592155366   13.12048771854814
H        -1.12243607126182   10.93178005318996   12.36820921204227
C        -1.28518209968751    8.90739916156870   13.03434632920669
H        -1.91806180173281    8.58908296064194   12.21887360167501
C         0.30150472176883    9.61543542172977   15.12759793979286
H         0.93398102105277    9.85085011194706   15.96865328871833
C        -0.16780235552272    8.33743230022676   14.96510423487627
H         0.06946123526254    7.56857524304615   15.68657485455386
H        -0.34607743033647    7.23322886882278   11.12991817324789
S        -3.67902217362244   -1.79680618094176   16.22216839012622
O        -4.88662796179164   -1.02461675308188   16.47489027964440
O        -2.44910327674509   -1.19133091175996   16.68836108554776
O        -3.77930540883899   -3.22486095678146   16.37645141126464
O        -1.79789629406151    5.73008321578931   15.68950576284408
H        -2.28001163401765    6.45450716615944   16.10042211117406
O        -3.49047199472908    6.54019944558286   13.34478514130590
H        -3.80485102414155    7.41561210885248   13.09842658428876
H        -4.11763348145369    5.89888030237149   12.99753575820900
N        -3.23559868423648   -0.22919659376772   14.22107832413681
N        -4.13606996144478   -2.25523083074095   13.47786221190578
N        -1.66281496117586    4.20104694530628   13.13754133635690
C        -3.64548315573557   -1.45294724088577   14.39579084228329
C        -4.25770270866113   -1.74306303747383   12.25927377984142
H        -4.75869473961137   -2.36619186751677   11.52992910545992
C        -3.70472173084416   -0.51852807417234   11.91396660064210
H        -3.65683011886515   -0.18906389779511   10.88845596709257
C        -3.15797897361725    0.23030588694153   12.96271029219672
C        -2.57151331538973    1.54853640069890   12.89038337980422
C        -1.72575962371454    1.94742788971804   13.94539892103735
H        -1.46658216187685    1.22075772334917   14.69904529093653
C        -1.31008230289580    3.24455702636941   14.02969326688053
H        -0.67883684149194    3.56635795157098   14.84506757792582
C        -2.89322324343791    2.52787069191111   11.93666107461985
H        -3.52442445389462    2.28900376863017   11.09561806084126
C        -2.42831059473285    3.80772995189413   12.09742180992501
H        -2.66775638275156    4.57457715056063   11.37453764657044
H        -2.25859916176161    4.91846603955848   15.92949329337330

