57
CSD_code = HOPLON | q = 0 | S = 0 | Stoichiometry = C24H29Cl2PZr | MND = 12
Zr        8.29382895504276    1.21165575627144    4.42778718491722
P         6.86228112840555    2.52776684123315    1.88650850948464
Cl        8.15529160988084   -0.52020793022229    5.99375732071485
Cl       10.27150637656612    2.06642714595423    5.34306554270130
C         7.97413781426867    1.07010186779850    2.06250517366766
C         7.73637139411203   -0.25859167466178    2.56460253241062
C         8.98131773269188   -0.78642630606949    2.99326626119770
C         9.98283580558175    0.20518808721806    2.82300965670245
C         9.37070593875308    1.35169570799983    2.26284632662156
C         6.53331564659146    2.65488302627948    3.69424869302117
C         5.92234402651177    1.73822539293799    4.62208550163830
C         6.40366956597837    2.05353126979221    5.91844452397691
C         7.34345311101176    3.11242675227014    5.81409150066007
C         7.43817166162618    3.47898020528258    4.45064491829538
C         6.51903808883235   -1.13104932725502    2.43649393992967
C         9.21212443069826   -2.20957980607446    3.40703654400595
C        11.44766956356783    0.02131541699796    3.09762698050037
C        10.10617229069258    2.58461168328963    1.81857119064729
C         4.77277701878652    0.79073387019952    4.41936968942496
C         5.88786100531578    1.46653112626232    7.19905749811397
C         8.03095699475846    3.78052436462822    6.96967802947206
C         8.23969877913898    4.63819260770196    3.92892100550853
C         5.32454806243827    1.85137117834774    1.18096094295830
C         4.09362493204097    2.38180366069300    1.55937564695758
C         2.93702288153486    1.98408701443005    0.91501519742472
C         2.99987382751622    1.07338494049333   -0.12773273127175
C         4.22583773020672    0.57131133429355   -0.53469737426145
C         5.38466610093071    0.96666887529043    0.10694030734108
H         6.72498807725824   -1.94018250404348    1.73122871966664
H         5.65938382274825   -0.58138711374654    2.06700606724502
H         6.27198765353247   -1.59110316343756    3.39611908980904
H         8.44067386212703   -2.54885555185343    4.09877714541649
H        10.17948093646984   -2.31735493648078    3.89320877940746
H         9.19362272943681   -2.86290756095734    2.53161481207501
H        11.60269860395629   -0.42651170423146    4.08153939729386
H        11.96629847139378    0.97758727362321    3.07510965723793
H        11.89737810990337   -0.63577173612772    2.34997751498437
H        10.60612282396683    3.07029069798508    2.66065145514304
H         9.41988323534652    3.29086461083641    1.35116320205248
H        10.86891165462074    2.32000942975211    1.08373488228613
H         5.01038973263085   -0.19655080494732    4.82267571816976
H         4.50191566092514    0.69715079238335    3.37259996800619
H         3.89721759703675    1.16125421349363    4.95809212753156
H         6.61245778724894    1.59726937879468    8.00112769789823
H         5.68542553310753    0.40133029229521    7.09032666013635
H         4.95941509874087    1.96206213457926    7.49341192451580
H         7.31665662416555    4.36572278419427    7.55262761602909
H         8.81830263142874    4.44387352243259    6.61830797439356
H         8.48180857237318    3.03833110365976    7.63203721610999
H         7.92147119731742    5.56184089559526    4.41614233086868
H         8.08822640927510    4.75507864209732    2.85579327397074
H         9.30545808033341    4.50258142701352    4.13064787045347
H         4.05304302663712    3.09778955124425    2.36916696677846
H         1.98342871671619    2.38767610047385    1.22302524619867
H         2.09527675339809    0.76260046318231   -0.62900302046666
H         4.27760868680043   -0.12713244639856   -1.35724130136739
H         6.34586543762246    0.58488112720433   -0.20984950460415

