47
CSD_code = HOPMIL | q = 0 | S = 0 | Stoichiometry = C12H24N6OS3Zn | MND = 5
C         9.88628816862501    0.88587830507203   12.49598068788946
C        12.01344688588798    1.52505600615270    9.83686246154119
C        11.80513491307768    2.05665510539985    8.51060948990798
C         8.94058740284747    3.11560000308326    6.87214079050630
C         8.83037061639869    0.32485510276137   14.64734334640625
H         8.84923841142150   -0.66896749910861   15.10216895349504
H         8.85365664884840    1.07406546865879   15.44379926481960
H         7.91583198977361    0.44499972303586   14.07340720787622
C        11.24524772108082    0.31229768550461   14.42781464523445
H        12.03216965563762    0.45106159595288   13.69294479162821
H        11.31258046935443   -0.69028180714382   14.85809485585925
H        11.36357890466033    1.04533623482122   15.23053043970025
C        13.38284236372121    1.11677450151412   10.28645839339188
H        14.04083138734820    1.98351337154167   10.33039612398625
H        13.81534790084980    0.39580143330278    9.59519858319307
H        13.31304616959655    0.67437153521539   11.27645890832861
C        12.95989528118800    2.28905204252228    7.58481262786493
H        13.43860154865573    1.34601687984901    7.32402984487733
H        13.70388840727666    2.93191875286231    8.05182969610719
H        12.59148338282786    2.76334848398870    6.67930408993061
C         9.51242499719394    3.57693653335525    4.55641867474915
H        10.45543636778653    3.15365678068886    4.88827067221698
H         9.66863971800676    4.61094217901219    4.23609711321603
H         9.12744888215303    3.00316773850860    3.70965512950389
C         7.24843780335963    3.99191331386555    5.31668840262765
H         6.80739212231152    3.35090981138880    4.54823929511829
H         7.29817822334477    5.01435638781714    4.93254682313057
H         6.62149081058536    3.97138851407759    6.20362950202118
C         9.30985056596531   -2.08340651111667   10.64411417883827
H        10.04774170697622   -2.41679862175313    9.92300570526488
H         8.81866494285154   -2.92234081729109   11.12293491757500
H         9.78376769248347   -1.45762444503593   11.39339681297000
C         7.58398695562941   -2.37537137492201    8.57424629244261
H         6.85834782137470   -1.93893320291976    7.89630038826061
H         7.13982462105119   -3.21041877263925    9.10289900559582
H         8.46248660032284   -2.68430389634749    8.02013333938586
N         9.96724556956447    0.48068711184694   13.78123160309329
N        11.02503131930708    0.99029042198007   11.84581892214954
N        10.96336330523810    1.44225063533915   10.59073349152703
N        10.57604366701195    2.31519813047696    8.19559258249708
N        10.21732137979197    2.80631979536743    7.01768357554766
N         8.56916598954074    3.52953962669972    5.64574475204866
S         8.30921919839278    1.14647662167511   11.82116700641844
S         7.74456118242073    3.07320897544888    8.11669354062814
S         8.04413840799220   -1.06837758616575    9.78830123460929
Zn        9.17429602549798    1.82374125672539    9.60633758242081
O         8.82672589476956   -0.12196153106078    8.95023425360017

