59
CSD_code = HOPMAD | q = 0 | S = 0 | Stoichiometry = C20H26N8OS3Zn | MND = 5
Zn        4.88016341472171   13.39128118842789   11.63549009339152
S         3.70051231039123   12.24843583005400    9.78321036471719
S         6.06299635289286   12.07737221110254   13.27945071479479
S         1.73552947365312   14.20612950778157   12.73127318647522
O         3.18504475460754   13.88288749445706   12.71878703259560
N         3.37064320970852   13.46704457340006    7.44896445555729
N         4.17547532008120   14.81734171501907    9.07795384302499
N         4.75728915159405   14.94998978299796   10.26457728600863
N         5.79822183505556   14.93552217292554   12.63847757431525
N         6.43190081444762   14.73110319369792   13.77438576964801
N         7.26502819294212   13.28024257180730   15.29463950928369
N         3.39953794100071   17.95780946713979   10.96146082834592
N         6.13854722999066   18.39210665330910   11.86779807275592
C         3.80306045970446   13.60778129423699    8.71865561774987
C         4.89811155615096   16.10061804806826   10.84353651102069
C         5.55737713984894   16.10866821035687   12.13124984061688
C         6.60029183782021   13.46626426968084   14.14079842579014
C         2.93110875692993   12.21882000888091    6.88712819362498
H         3.65506746432921   11.85334373659875    6.15291886698097
H         1.96896114295763   12.36005101584695    6.38872525365784
H         2.82453642697865   11.47986640422390    7.67683635602069
C         3.49325003212957   14.55391832924971    6.50869288430546
H         2.55943659190589   14.65892875284287    5.95236459452695
H         4.30382459735956   14.36106444514649    5.79957988892207
H         3.70194999350153   15.46961881527306    7.05546446745123
C         4.36445858600966   17.35367144128532   10.27133653557990
C         4.80406117957991   17.81637141157973    9.03233577712842
H         5.56983897004117   17.27565090793669    8.50018710088185
C         4.25348186758583   18.97919428592013    8.52959640717923
H         4.57924415479965   19.37481529207053    7.57780515625638
C         3.27532430425518   19.63180891259018    9.26668192516594
H         2.82462687392546   20.54630912049220    8.91294163866558
C         2.88209763016178   19.06980979083422   10.46915889691698
H         2.10686972583353   19.52445311560457   11.07400816113624
C         5.90843461974485   17.39834095540949   12.72714352577866
C         6.44408547278356   19.58208992135324   12.34157213521769
H         6.61883357677670   20.34675486028734   11.59442813080721
C         6.54505556689747   19.86503416910738   13.69582748076326
H         6.79927093667364   20.85756445574255   14.03444073827036
C         6.30908821695144   18.83486260777833   14.59420669177090
H         6.37193090524436   19.00996419845390   15.65918943624109
C         5.98732849951892   17.58090859487802   14.10963077054459
H         5.78420088413944   16.75446903535752   14.77012110723137
C         7.84366172518878   14.38881333729680   16.01385247842643
H         8.89108430799149   14.17198782243437   16.23472964590208
H         7.31248702146175   14.55044213152444   16.95603069673076
H         7.77618946684257   15.28407327281732   15.40228814158831
C         7.50568361738544   11.98589933870746   15.87352834804333
H         6.83934108630729   11.25326080362556   15.42434671525920
H         7.32534811200385   12.03477563949822   16.94935135032993
H         8.53980369811894   11.67156641751287   15.70204196026529
C         1.46143669445527   15.32064576375278   11.30621265631776
H         2.03271044544966   16.23299324354938   11.47351024299862
H         0.40294514676234   15.54832998257354   11.24863677093380
H         1.80020586233033   14.83970538161602   10.39434801104932
C         0.91714883209663   12.73927244788030   11.99849420160394
H         1.45855482218853   12.44681489752795   11.10224414516182
H        -0.11540220370093   12.98141285865723   11.77645560901580
H         0.96420339344403   11.93602389178205   12.72679777925363

