59
CSD_code = HOPMOO | q = 0 | S = 0 | Stoichiometry = C26H29O2PZr | MND = 12
Zr        3.97100827610070    2.42957838836244    0.74028085904793
C         5.49599935780155    0.90881838075058    1.02481096077759
C         2.89451241553383    2.70215414817277    2.61051109912020
O         6.35031444780566    0.34193001590277    0.44801878152005
O         2.01851911536426    3.33087720919043    3.07895846754743
C         4.53222222305582    4.33951504923330   -0.54124930808441
C         5.78995784310448    3.69728217504027   -0.25198223805252
C         6.05448032462498    3.84920511911351    1.12913097252418
C         4.97282396735972    4.56741969632856    1.71069848711580
C         4.01852669328490    4.85644825085820    0.70056017433027
C         2.74821119124288    2.41003436803294   -1.28677306235092
C         3.42283984270468    1.13685708482578   -1.24209045131611
C         2.82950122087123    0.35969354316726   -0.22012232921314
C         1.80054753816327    1.13428549068943    0.38420237517937
C         1.75320327338988    2.40528105414851   -0.24593734604997
C         6.76013169303443    3.17259693300895   -1.27295565587949
C         7.32546558375045    3.47472626570794    1.83964320365466
C         4.95717146885496    5.09609240064615    3.11780695575507
C         2.85206863797472    5.78130980797130    0.91453588888530
C         4.41330389498343    0.63477039714415   -2.25495392773196
C         3.10836876221718   -1.08807438044909    0.07422365314215
C         0.80948572202117    0.60643158761266    1.38362969830157
C         0.65126064202019    3.39979277179227   -0.00396241701794
P         3.68821287688595    3.78012076874099   -2.07773899702348
C         2.45218789921719    5.06553027164971   -2.44388918695477
C         1.23374300781161    4.71447621980672   -3.02101949433148
C         0.36009992337622    5.69385500707992   -3.45467631186379
C         0.70268198887149    7.03190025035436   -3.34052064067809
C         1.92986017872570    7.38749017326149   -2.80354300816129
C         2.80604158892011    6.41096847679467   -2.36865902566925
H         6.33384727144222    3.25723332629891   -2.27313866111594
H         7.02893054515348    2.12863500599405   -1.09321333581189
H         7.68128506387609    3.75882394469558   -1.24862516573309
H         7.93867637721030    4.36197001892815    2.01463860252295
H         7.91030046160988    2.77296870324669    1.24724097530130
H         7.11548051886184    3.01974483397208    2.81008703944090
H         3.94950782995840    5.36466034951905    3.43052652264772
H         5.57991061625955    5.99126224534698    3.19090007708834
H         5.35358009510073    4.35813694771327    3.81731168042964
H         2.25062851927965    5.87708415218052    0.01527745758429
H         3.21595408346508    6.77714630636827    1.18032660959435
H         2.21288093718805    5.43902802922008    1.73190678399447
H         4.63573549434161    1.41687013165152   -2.98160010307975
H         3.99553197569518   -0.21774502021152   -2.79482827352153
H         5.34863477997170    0.30708830876533   -1.79441340339796
H         4.05311183266860   -1.40024782130647   -0.36785208418628
H         2.31760818772562   -1.71895090165837   -0.33873555109301
H         3.15088437595522   -1.27080975825841    1.15015551052662
H         0.04757925526989    0.00738654087509    0.87854012263549
H         0.30376127179687    1.41561982146571    1.90786073442206
H         1.29958538668120   -0.03259591157705    2.12015500192604
H        -0.30825479610012    2.96317530642494   -0.29284473684467
H         0.79474247301127    4.30275486311639   -0.59017276968459
H         0.58068854266947    3.67186360724900    1.05186772408411
H         0.97657285491823    3.66776937240811   -3.11522727224314
H        -0.58992225163997    5.41444445234401   -3.88720030358080
H         0.01822136579268    7.79609641751797   -3.67832357409744
H         2.20492763152169    8.42973352490564   -2.72778822998101
H         3.76915770123909    6.68088627787137   -1.95606955436496

