71
CSD_code = HOPPUY | q = 0 | S = 0 | Stoichiometry = C36H24F3N2O3P2Re | MND = 6
Re        2.51404086005279   16.88336678349958   13.29408203564519
P         2.19386825067333   19.20225962031810   12.85084433361797
P         0.12823966973481   16.94442171281663   12.73213382992657
F         4.78106280241201   19.01935539491589   11.78450335338988
F         0.66316158017072   14.58583619880229   11.30178613359018
F        -2.60157980589161   16.49678982393075   11.35606871173540
N         1.66483483277956   18.86563925101177   15.77082074267038
N         0.22692429493310   17.34167481998415   15.04434856669650
O         3.49136370055713   16.13687024868072   10.44841636217215
O         5.30746428013060   17.47244846355234   14.49240003914792
O         2.45158179202648   13.99768599791127   14.42006102153222
C         1.43101670519354   17.80764976287664   14.92382958225489
C        -0.48784025605060   18.02705513237310   16.10500997438221
H        -0.82376854037485   17.29747299532447   16.84605121064394
H        -1.37289370260929   18.52766909079037   15.69414443761327
C         0.54014051007135   19.02072794907295   16.68780415871894
H         0.18445164701181   20.05520140152640   16.68658184717045
H         0.83268235510625   18.74346887355384   17.70572583507003
C         2.55830359452345   19.89015627114705   15.50418225439459
C         3.05563824724349   20.67525294094408   16.54127641018963
H         2.75961541104613   20.45613170595488   17.55630280662864
C         3.93632077613458   21.70771621248135   16.28073365430190
H         4.32192331375382   22.29748100795465   17.09895687010725
C         4.33046566179627   21.98345028380355   14.98193791168116
H         5.02209865866995   22.78732896953478   14.78140315528589
C         3.82390179109268   21.23275205788629   13.93588732152318
H         4.10990700905448   21.46644348360435   12.91960979394487
C         2.92709153493852   20.20143987687216   14.17780511708251
C         2.71704348254827   20.00173621505191   11.30689438297310
C         1.90938488024531   20.71045897250511   10.42562969988389
H         0.88756492692006   20.93733713988910   10.69376520975061
C         2.41736033830620   21.13342204690194    9.20925406547595
H         1.78470997019350   21.68868423545510    8.53316163658117
C         3.72398841947141   20.84484119139031    8.85051848417644
H         4.10719240673484   21.17374799027044    7.89681492889248
C         4.54536828677136   20.12968390456000    9.70817322470979
H         5.56360420322098   19.88567981239736    9.45005317615406
C         4.02329301097912   19.71785032722028   10.91553978834090
C         0.43745050256093   19.66208514180143   12.96909113210478
C         0.05455417133713   20.97988953433456   13.17920918788892
H         0.81127517847538   21.75224305151824   13.24607161602794
C        -1.28801609956312   21.28934479343269   13.31869570300594
H        -1.59072549691045   22.31276360504569   13.48545288319572
C        -2.23724139134936   20.28186018761968   13.26355290417725
H        -3.28304746417771   20.52119243551267   13.39063113558162
C        -1.85815368845388   18.96286937777397   13.06580840514096
H        -2.60996892496839   18.18931668309170   13.05195568344498
C        -0.51821307575384   18.64308635412089   12.90228821663198
C         0.05570604491455   16.80414757683164   10.89268047999001
C        -0.16872612365156   17.82626439600393    9.98118525434075
H        -0.44625179133103   18.80923461799756   10.33489195311513
C        -0.05334757050755   17.58717026543732    8.62246234583599
H        -0.23017212396834   18.39141380877112    7.92351600507398
C         0.28573876180911   16.32917423078046    8.15461612731701
H         0.37310809968323   16.15165581572728    7.09352000341428
C         0.52079186920074   15.29218786076973    9.04401911820266
H         0.79764484818032   14.30545067510325    8.70782649171787
C         0.40884239586159   15.55679021970584   10.39087489916764
C        -1.19203936482042   15.76352541222850   13.12611807905007
C        -0.98266264311313   14.84742433193787   14.15116475966497
H        -0.07358774344995   14.93231686747559   14.72706439709878
C        -1.91315964091753   13.86416390967629   14.42725240164597
H        -1.72936453379069   13.15956755346316   15.22391594620582
C        -3.07449229412077   13.77534998601171   13.67674510061090
H        -3.80387556972733   13.00793948658555   13.88724484627965
C        -3.30129056900635   14.66929691110714   12.64506623971280
H        -4.19295304024118   14.62066112305434   12.03889516843829
C        -2.35563690781607   15.64047846153411   12.37601345232996
C         3.16311595173860   16.34041740617495   11.52778074634979
C         4.29541487857833   17.21082540563146   14.02353820288359
C         2.48785645571379   15.06180434699498   13.99663904627163

