70
CSD_code = HOPQIN | q = 1 | S = 0 | Stoichiometry = C36H24F2MnN2O3P2(1+) | MND = 6
C         3.13669309375071    9.35990392634250    6.85447473355271
C         5.40819074758161    9.91082994098361    6.72850261518034
H         5.80984983120583   10.43243214518407    5.85686204620762
H         6.21350631742267    9.34231743286196    7.20229109929599
C         4.71498505718527   10.88020070488557    7.67711070016981
H         5.12713079912933   10.86440550323493    8.69005256429369
H         4.75670003934766   11.90266918063340    7.29488628340320
C         4.66055077980859    7.87658565502187    5.56641818973970
C         5.77780145324966    7.89761030787962    4.73791289425882
H         6.35035594623161    8.80119385452445    4.60783568927264
C         6.16104342177091    6.76352529564027    4.04163460388971
H         7.02174716633136    6.81017447767575    3.39318136162036
C         5.45421296648388    5.58128557656128    4.17236186811764
H         5.76202229192498    4.69808059373544    3.63567640745448
C         4.33850065097896    5.54274923041131    4.98878959316509
H         3.77259268720176    4.62772273475608    5.09428280864610
C         3.93687656804771    6.67698256504077    5.68181470744509
C         1.60903405214736    5.15776660727962    6.44185093081365
C         1.36799066263867    4.20569434566728    7.42618556244512
H         1.75195496672094    4.34954604918579    8.42612101483621
C         0.63874303635597    3.07161370040067    7.10937594183433
H         0.45738850022898    2.32728442333427    7.86920228542609
C         0.13660935490626    2.88553214116636    5.83043306255831
H        -0.43178613307923    1.99805668637724    5.60078762886824
C         0.35014403209729    3.83316452097746    4.83917421080083
H        -0.04066213882001    3.71246549693394    3.84166974147039
C         1.07723561018068    4.95462941451942    5.16935752085777
C         3.02412205782606    6.69316249476371    8.37198305509382
C         4.03893720948385    5.86416537996219    8.83240224189542
H         4.52987819273312    5.18080540595222    8.15248492924889
C         4.41097244143491    5.93428372793092   10.16529965837086
H         5.20015256924144    5.29685888438098   10.53399711629986
C         3.78161403316604    6.82054278724830   11.03015678976651
H         4.08659901007728    6.86558807915185   12.06457224056364
C         2.76902820118911    7.65067961179457   10.57679851317469
H         2.27920830542092    8.34703329631830   11.24421454655883
C         2.39024745702082    7.58387510619409    9.24221447816783
C        -0.42248541817747    7.99689158814830    9.22439758179143
C        -0.55484533649806    6.89354256690785   10.06017986896084
H         0.32161410813784    6.35313457354103   10.38847918011053
C        -1.81796860333598    6.50106727544626   10.47094904544511
H        -1.92299725618096    5.65008532507218   11.12597079073467
C        -2.94645935555844    7.18558179770346   10.04622277244731
H        -3.92323279800571    6.86502850091422   10.37267851002770
C        -2.83659489475754    8.27791827722534    9.19712019560808
H        -3.70220083799175    8.81693225882968    8.84713251208066
C        -1.57444572878120    8.65606287625190    8.79803085081550
C         1.38647131171871   10.24066805859822    9.17213099723074
C         2.44079234769015   10.97958712276586    8.60778202357529
C         2.63854676635382   12.28641994795379    9.04163544261612
H         3.42499223842848   12.89291005650839    8.62345228908590
C         1.81044554203747   12.84373754542528   10.00160812198551
H         1.97481612138705   13.86432745505842   10.30967996864066
C         0.78376967070875   12.10617127173632   10.56405427073689
H         0.14718349877846   12.54151847600974   11.31775887604874
C         0.57047670266016   10.80615374240075   10.14290380470822
H        -0.23236789091905   10.22073572828961   10.56878712477244
C        -0.14231182617573    7.91325702411974    5.93420990180959
C         1.92273741370311    8.70501703342691    4.59374721169469
C         0.76604652001039   10.32316775527881    6.17818020499926
F         1.32437521839693    5.92929031291141    4.26792695527949
F        -1.37795661791332    9.70158772453996    7.96618442595647
Mn        1.42509139969221    8.67234066672883    6.30460287009431
N         4.32625005049398    9.01022680499562    6.33132623556699
N         3.33492367216287   10.39596101625327    7.69035439999056
O        -1.13034670189575    7.36348626942740    5.77314644882921
O         2.27069663409098    8.72627871712026    3.50687828813862
O         0.36752664150045   11.39099222043803    6.11680657590001
P         2.42434285552762    6.75132041852251    6.65763979433471
P         1.09914331408943    8.60558230653807    8.47307282521855

