30
CSD_code = HOPVOY | q = 0 | S = 0 | Stoichiometry = C11H10MoN2O6 | MND = 6
Mo        4.50563264972731    0.33214995943601    2.86908943943402
C         2.17531800246662   -1.19723231862823    1.96581041973211
C         3.20839155397044   -2.35189156178440    2.19319906304871
H         2.73520062268563   -3.27397041469013    2.55868147037140
C         4.68530434464489   -2.50930358291501    4.04909701655278
H         4.30866641317811   -3.52176926973948    4.23244808554844
C         5.74065244774872   -2.05044645307971    4.89072195242653
C         6.13316819013992   -2.81703512540362    6.00424751330367
H         5.57823579832761   -3.71481699570627    6.23603453860808
C         7.18471044644072   -2.43111609570364    6.79643704751432
H         7.46442191471477   -3.02040824598913    7.65542520702928
C         7.89668260362903   -1.27016838574917    6.48536616296276
H         8.72341347159569   -0.96889458114929    7.11101015902720
C         7.55748569026316   -0.50979296805746    5.39142700115647
H         8.09617373689667    0.39189526221278    5.13672042401608
C         6.46622006622150   -0.86305917712029    4.57593941776234
C         3.82048172494812   -2.57341309061659    0.78151272509053
H         4.54838784200291   -3.38801442549506    0.82401245963368
H         3.02653990426140   -2.82009364346229    0.07604709205678
C         4.54911680634475   -1.28408687458254    0.42952577643393
N         4.19627323329272   -1.81910066430872    3.08061036294175
N         4.02907607436224   -0.49049581630224   -0.51338004359615
O         3.83970560898305    0.77691122727703    4.30681447568816
O         4.85163338173399    1.54787143448655    1.82293940047601
O         2.76074585606757   -0.05649874109440    2.00836122920235
O         1.02978730470355   -1.43524223254910    1.67875259215711
O         6.15683169042349   -0.12821264159472    3.54400719019063
O         5.58333855370439   -0.99928649889269    1.02421558955691
H         3.10108643609856   -0.63151375884726   -0.87990458014720
H         4.42351763042224    0.44223568005061   -0.57026918817906

