69
CSD_code = HOPYOD | q = 1 | S = 0 | Stoichiometry = C30H32MnN4O2(1+) | MND = 6
Mn        1.23090284494807    0.86147971217506    4.31306138961768
O         0.18128735623011    0.17873130642097    2.97218691728882
C        -0.48251753281709   -0.93166416494320    2.92751644136069
C        -0.86665192267804   -1.45362826109237    1.65752751607241
H        -0.56207883519616   -0.90402447530754    0.77855425991799
C        -1.58080020302143   -2.60249219974828    1.55850192946128
H        -1.85840817504600   -2.98874861910055    0.58885058434750
C        -1.96996586680691   -3.33302597475978    2.71139243676492
C        -2.68397943821012   -4.53718767870442    2.59065322536617
H        -2.94162360506652   -4.88963222584833    1.60293275849362
C        -3.04352527853815   -5.25467991130669    3.70184750381414
H        -3.59394008480286   -6.17731873354470    3.60368688653208
C        -2.68292810634735   -4.79156923227821    4.96953390480574
H        -2.94880609331755   -5.36820470399991    5.84245645457137
C        -1.98954018655280   -3.61534902126159    5.11428418539191
H        -1.70163576911275   -3.29904684722295    6.10476290186621
C        -1.62812180432454   -2.84211992590386    3.99719548553631
C        -0.90338752079441   -1.60662363710081    4.10625966966071
C        -0.76433904389868   -0.93151030563302    5.34437312750850
H        -1.41729047242877   -1.26030291023774    6.15199738165483
N        -0.02660592073092    0.12487009481632    5.55243288402116
C        -0.35473809559814    0.90148338235551    6.73691552676820
H         0.56325029076973    1.22253689374274    7.23478978327957
H        -0.93536996036312    0.29464006300570    7.44220561775531
C        -1.18666504489201    2.13758886897110    6.35220709559092
H        -2.04712146556431    1.81646870018548    5.75771829016594
H        -1.56121747044470    2.59827362458942    7.26696477109345
C        -0.38122111182840    3.18187973803112    5.58107960478623
H        -0.99267071088384    4.08529372933565    5.44543086460306
H         0.50579177410466    3.45085667910140    6.16104344332286
N         0.07258924437368    2.66875552707896    4.28522472250837
H        -0.75850730197549    2.47869982769075    3.71742214250837
C         0.89764493955474    3.63619515669009    3.55618202511782
H         1.69614557663328    3.96871415397230    4.22636843509392
H         0.31498203265390    4.51492956283397    3.24889539533305
C         1.50887812614899    2.95793108909598    2.33387811141822
H         0.71114751672926    2.54863261799598    1.70665895098664
H         2.07561164651484    3.68799081209950    1.74070283323539
N         2.35462043103457    1.84325946010169    2.77031379672992
H         3.18663832817508    2.24046422047499    3.21663875429216
C         2.80454339277615    1.00839332238951    1.65272146652639
H         3.39349883499580    1.60284415080782    0.93985374304486
H         1.91509706033712    0.63559461619819    1.13749738129866
C         3.63960348500590   -0.17712133427543    2.13339478551635
H         4.50330247154560    0.18094047692685    2.70146387938448
H         4.00950129210860   -0.71447822753183    1.25946233913927
C         2.84023960398394   -1.16172777733780    3.00497391369178
H         1.92091005646434   -1.44227465773744    2.48548416579134
H         3.44265345762738   -2.06630950036440    3.15233846161788
N         2.51584009598243   -0.55608218617564    4.28630216262227
C         3.27058183433782   -0.91179269741634    5.28987169992796
H         3.93840260408100   -1.76030256707992    5.14568347262303
C         3.40831637948715   -0.20083824083332    6.50795625103038
C         4.15337535189425   -0.73523748259214    7.61376763631601
C         4.53835167827567   -2.08504153233977    7.69242033268912
H         4.25398027129945   -2.77298508089367    6.91149868258055
C         5.25044460719963   -2.55896935950738    8.76645129087211
H         5.53407362624281   -3.59977514094254    8.80465620233152
C         5.60741578151514   -1.70865325033210    9.81576500674376
H         6.17284321639227   -2.09340712925331   10.65010193983339
C         5.22515834066070   -0.39276527955984    9.78175667947544
H         5.47966221166001    0.27359529320089   10.59253127280066
C         4.49130376942823    0.11570678278296    8.69671894932642
C         4.07773266929808    1.47317564349045    8.67381851112036
H         4.35273038708061    2.10702959759880    9.50392984975549
C         3.34368397920070    1.97114503738863    7.64770403172178
H         3.02021861833036    3.00200762606629    7.63687944183041
C         2.96295239644621    1.14905865530324    6.54672609902334
O         2.27914943971248    1.67432384924621    5.58132234272274

