69
CSD_code = HOPYAP | q = 1 | S = 0 | Stoichiometry = C30H32MnN4O2(1+) | MND = 6
Mn       -0.00001482466142    6.38861204193376   12.25807533178696
O         1.08831290716083    4.90970126006484   12.31668090850700
C         1.72407757859472    4.34272125288022   11.34085667356385
C         2.13255974910022    2.98403864391032   11.48221542088547
H         1.88405863621686    2.48174541396752   12.40601753076030
C         2.79589651785264    2.34302650168176   10.48730890166668
H         3.08962750212974    1.31057819521698   10.60671326242054
C         3.10487975600477    2.99452788253471    9.26505331466492
C         3.75177675886045    2.30566629261069    8.22503673170198
H         4.02256368089139    1.27163152867518    8.37836371533314
C         4.02830259357085    2.92893505376907    7.03603546353883
H         4.52482511358890    2.39537833624252    6.24062830626550
C         3.65177005438333    4.26143245376442    6.84956133467313
H         3.85231302834966    4.74413529279624    5.90511445779476
C         3.02503969775027    4.95847549837102    7.85257996049178
H         2.72117458840446    5.97750223345594    7.66976385007939
C         2.74787384304327    4.35587261411075    9.09217551219342
C         2.08447418259697    5.04826069614438   10.16044354388257
C         1.94980294074528    6.45994432743574   10.16151424786737
H         2.58380256873558    7.00907160556761    9.46610933550455
N         1.23759531398239    7.14603788776682   11.01074897064228
C         1.55667111490066    8.56000861405770   11.11774320359044
H         0.63485188975583    9.14624874800806   11.14451271125646
H         2.14605614589045    8.88421640089122   10.25142611228161
C         2.37097560116570    8.83348188204823   12.39430346788947
H         3.23757280386896    8.16602392485148   12.41495635258048
H         2.73635993377894    9.86026873341381   12.35435828185638
C         1.55102044176214    8.66166865040875   13.67168965305131
H         2.14558086888819    8.99776305990475   14.53303135366506
H         0.65335754420603    9.28303410396804   13.60983950346368
N         1.12066315776131    7.27275563382081   13.85481244765474
H         1.96186975803688    6.70011953495275   13.97268723183682
C         0.29131311653627    7.09360225261086   15.04989072642000
H        -0.52162104242200    7.82482244394239   15.00747724678882
H         0.86486817080353    7.26600559993767   15.97038687615874
O        -1.08816128483315    7.86765445839142   12.31658667649769
C        -1.72373052802844    8.43470250616598   11.34067708765495
C        -2.13279993920184    9.79317827543772   11.48232020213067
H        -1.88401701538558   10.29556475910776   12.40600073641054
C        -2.79627333775850   10.43414285973956   10.48747273750502
H        -3.08932138067826   11.46682152838765   10.60656759895873
C        -3.10484877227263    9.78278152528909    9.26505078161970
C        -3.75138311981046   10.47175717887335    8.22489182635993
H        -4.02285609934510   11.50556468781195    8.37850815651881
C        -4.02803019886909    9.84845975738978    7.03591838944588
H        -4.52491465371090   10.38190131420362    6.24064864963962
C        -3.65224834061258    8.51571309089119    6.84972842971384
H        -3.85203580235660    8.03326552146600    5.90500888000942
C        -3.02541614089517    7.81871299934699    7.85271170397289
H        -2.72095571856094    6.79991499233337    7.66966161789538
C        -2.74786907397741    8.42143438355137    9.09217041393626
C        -2.08436257231468    7.72907567242506   10.16039321936637
C        -1.94991604928179    6.31734583627771   10.16159894902623
H        -2.58379388868825    5.76821910378433    9.46607495158576
N        -1.23766378676439    5.63122281523700   11.01076578412073
C        -1.55672682155729    4.21724924209026   11.11766849743995
H        -0.63492040204490    3.63101250396402   11.14443808024039
H        -2.14609779938553    3.89307055436120   10.25132467944621
C        -2.37092317494555    3.94385824859101   12.39431728454799
H        -3.23753121874973    4.61129948360623   12.41497862066296
H        -2.73628470068291    2.91707169669318   12.35434567075860
C        -1.55104625875978    4.11561251698080   13.67176612294213
H        -2.14559756981846    3.77949659579352   14.53311053999668
H        -0.65339481985242    3.49423900615862   13.60987991616574
N        -1.12068204806411    5.50453616084693   13.85484910683597
H        -1.96187580872923    6.07719627338939   13.97271286847735
C        -0.29130661632476    5.68371410892084   15.04989563556495
H         0.52162363929581    4.95248369005218   15.00747035557456
H        -0.86489038927257    5.51131205673406   15.97037388626467

