69
CSD_code = HOPYIX | q = 1 | S = 0 | Stoichiometry = C30H32MnN4O2(1+) | MND = 6
Mn        2.37621707567010    9.29275186106494    4.08483692949586
O         3.43681376737093    8.03556753449457    3.26580737293129
C         0.62471646849165   11.46886510890183    4.53903033093326
C         0.25270909716813   12.52829460112362    5.41781328618377
H         0.58320983094553   12.46442946320137    6.44451608979870
C        -0.47715002868013   13.58323024173060    4.97621537490963
H        -0.74260543149125   14.38215438528765    5.65271758625638
C        -0.89416708683447   13.67935235582579    3.62314163406216
C        -1.61079922826583   14.79926777456748    3.16832631642553
H        -1.85152228515879   15.58147502341064    3.87281403521234
C        -1.99201836480620   14.90285261873013    1.85574904410480
H        -2.54248398145212   15.76454100790219    1.51175116021731
C        -1.65381364456754   13.88953717945317    0.95522675972210
H        -1.93689589514052   13.98324402550245   -0.08222279548762
C        -0.96029735681874   12.78199902594641    1.37616585248693
H        -0.68829961620799   12.02954949650050    0.65229167306805
C        -0.57488542727999   12.63380414190294    2.72005785104159
C         0.15968577333377   11.49583007221949    3.19579748955792
C         0.27014255509136   10.30813751777681    2.42908043069173
H        -0.42549133934630   10.20076521997010    1.59741487876230
N         1.03333108643360    9.29245822115682    2.72131106025886
C         0.69831218832072    8.03441696729115    2.07510201806597
H         1.60891486304271    7.55054303577112    1.71357578300006
H         0.03837795958799    8.21064936114141    1.21687660694685
C        -0.01889321666920    7.09567505569781    3.06090283434347
H        -0.87144584022826    7.62295379730213    3.49895495870414
H        -0.40155807494869    6.24042980584023    2.50279748441290
C         0.89788095709550    6.57875549777139    4.16816313118462
H         0.36590123090213    5.81620867036007    4.75465739468043
H         1.77897692338798    6.11347113610307    3.71779387213634
N         1.36177966081427    7.66448192485151    5.03645588753811
H         0.54063665515084    8.06147501031255    5.50282433890383
C         2.28110137227675    7.19768582103171    6.07810675073230
H         3.07619655234430    6.62410913647620    5.59209935902500
H         1.77541854141905    6.54445260319842    6.80169773643600
C         2.88583668828781    8.40352021009033    6.79056226124884
H         2.08440531258269    9.02322233994623    7.20412394883028
H         3.52858406070054    8.07181814331862    7.61688549537452
N         3.62736878179367    9.21471306628300    5.82092978635266
H         4.46651800893731    8.69050018146588    5.55555495124188
C         4.06322854163910   10.49839803671895    6.37777130305381
H         4.72252873659023   10.33975467438987    7.24299981661015
H         3.17220617719567   11.03330083935470    6.71785236451856
C         4.79152781345782   11.34554154872403    5.33588746382107
H         5.64764739955201   10.79247656687177    4.93825173068522
H         5.16812589820277   12.24474823236559    5.82475099180045
C         3.88485555075352   11.77365423223042    4.16874608937351
H         2.97729775982067   12.23458244922062    4.56633484536103
H         4.41703575693834   12.52251170495798    3.56949110128296
N         3.53468199391912   10.62623232328432    3.34818254521577
C         4.17274675680005   10.51428668242782    2.21685182304323
H         4.76574534966248   11.36383045089986    1.87975430648191
C         4.28298861981812    9.32411631684172    1.45391977695808
C         4.86023438785692    9.32256214018392    0.13943837331931
C         5.06662562502518   10.49927637971201   -0.60182154221558
H         4.77044802575631   11.45243370793368   -0.19194863837179
C         5.61325523264714   10.45805856162624   -1.86051117617763
H         5.76088299562860   11.37438145536873   -2.41170705728608
C         5.97549393587012    9.23947281394764   -2.44016311091621
H         6.40950676279347    9.22295717770275   -3.42771580082069
C         5.76547282199398    8.07219535528588   -1.75293642229825
H         6.02596817531941    7.12149874443540   -2.19392192325849
C         5.20190818865144    8.08649754241104   -0.46575681463590
C         4.96244836514286    6.87672978412079    0.23640246621299
H         5.24325110847638    5.94617363962382   -0.23446097373113
C         4.38132519242608    6.87401886597046    1.46230047208206
H         4.18624547224883    5.95125852307151    1.98937420395880
C         3.99164974585077    8.08998484322235    2.09683169751594
O         1.32455901671046   10.48457776617537    5.00669512862645

