23
CSD_code = HOPYIW | q = 0 | S = 0 | Stoichiometry = C7H7N7NiS | MND = 4
Ni        0.29991660240667    0.89384390556887    3.44570510829582
S         1.35232804744547    2.37488256735080    4.69567112068079
N         1.00712939205384    0.08379983045419    6.03033417022568
C        -1.27919762768365   -2.92810073540796    3.12178921419535
H        -1.30172619527865   -3.72989275665135    3.84278432027325
N         0.43193004303272   -0.23928755347479    4.87792910082830
N        -0.63456902572049   -0.67862176873045    2.58469197068749
N         0.57055482336822    4.01056816502752    1.11521367424807
C        -1.16424861503153   -0.82995369692807    1.38020310620551
H        -1.10035137594720    0.02259721382203    0.71725376944243
N         2.08961275708046    1.76898281536161    7.15555071819859
H         2.17989642257272    1.17661224468888    7.96183279216081
H         2.44863058223006    2.70658095543698    7.16835579498531
C        -0.07867915402679   -1.43087231340898    4.73056186587472
H        -0.03844023595208   -2.15541872662425    5.53475730661475
C        -0.68264501028490   -1.71079363990338    3.46247321035855
C        -1.82822184695591   -3.07545562590752    1.86398115630947
H        -2.29487405633754   -4.00544706256574    1.57601084728380
N         0.39285736171540    3.01679847842591    1.62690128053743
N         0.12940829381289    1.93405551531241    2.00595523407506
C        -1.77106689503256   -2.00903389213358    0.97505813216016
H        -2.18886675383848   -2.08843758691939   -0.01510635824313
C         1.48212246637142    1.31049366720635    6.05399246460164

