116
CSD_code = HOPYAN | q = 1 | S = 0 | Stoichiometry = C64H44NP2RuS4(1+) | MND = 8
Ru       11.92765235763146   -0.00533525552373    3.45858261462567
P        11.62170184850406    1.57340828571738    5.14422541045979
P        10.52031236688025    0.84494690066887    1.80962520266044
S        10.23161614554778   -2.86501711828826    7.31739911987370
S         7.84966794076775   -3.53568132713636    3.47867664590175
S         6.12426775677689    0.92510501872084   10.04909800756884
S         2.44939776125602   -1.20440649011816    5.53975856107609
N        10.49990994379416   -1.04728937427789    4.10067638300978
C        10.51564720501412   -0.35484273216343    0.43267772071316
C         7.88245999180101   -1.83051140736078    7.92055867914655
C         5.02499680714034   -1.65170138757243    5.54273875029392
C         6.95857278468690   -0.87863831196463    8.34593625249516
C        12.51619030990430   -0.20549170142428    7.01068067126118
H        11.92675145896952   -0.89618361720710    6.41777659395878
C        12.60667246286030    1.12553859356464    6.61183034614254
C        13.17012397692123   -0.64318477648421    8.14597478849480
H        13.09432243637780   -1.67905320995924    8.44239311386809
C         7.49481136152670   -1.85019628429160    5.56994653446017
H         7.71701236225309   -0.80365606476946    5.76850412579665
C         6.20242958368507   -2.06917813263825    4.93218606491726
C        10.96075591283191    2.41841337047551    1.01350607058215
C        10.03042903889438    1.88953317830604    5.98500574597073
C        14.08702622726133    0.37135646189062    2.90347768197445
H        14.67746984405240    1.26550317789374    2.75336983085108
C         8.84165340652532    1.39504788099454    5.46812247876527
H         8.87458692698474    0.79388912796506    4.56993411379848
C         8.73562127161451    1.09830527625825    2.11350441828145
C        12.15413859721705    3.25589422805757    4.71240572365009
C         9.64457529942218   -0.91429106292120    9.28585710817562
H        10.67753009287677   -0.88538675466783    9.58997261729964
C         5.02498159646965    0.32544046397224    8.83005681662219
C         3.85129151411190   -1.91819178110069    4.80636875676898
C        14.00996799386883    1.57635226030479    8.50541660714050
H        14.59394737128127    2.27215064985665    9.08916013239913
C         8.64235670061582   -2.63167304871138    4.91033868878350
C         7.59068258865400   -2.74676640008482    6.81218370769710
H         6.73381850465360   -3.39897492856624    6.97603496956480
C        11.22263569852814    4.25262249804361    4.43981835111028
H        10.16890602755385    4.04943076701688    4.57085180086817
C        11.64714911397841    5.49999343281073    4.01897467434911
H        10.92131981283532    6.27194048717577    3.81213715815232
C         4.79081806997070   -0.95031396532784    6.79265358541105
C        13.35173565081373    2.02133844425665    7.37095750285040
H        13.42568753174254    3.05962469199074    7.07924369032218
C         3.42664357228016   -0.58420655935007    6.84966433027625
C         9.72547828437141   -1.83527299492179    4.45032705598089
C        12.99865889817576    5.76136607573425    3.86613085009725
H        13.32633258538261    6.73717097511926    3.54181479825452
C        12.16880622197898    3.03139855653197    1.31633187565277
H        12.82249853152425    2.57463455045987    2.04702386801797
C        10.79517937697926   -0.96299414393816   -1.87617198133623
H        11.02305726090881   -0.67900914938175   -2.89246006157812
C        13.92259873510516    0.24951407956033    8.89387198831927
H        14.44144632452087   -0.08825886943339    9.77797494566967
C        13.49455246810106   -0.40192325060668    1.87570860749344
H        13.46435160610652   -0.14043475629646    0.82527279946994
C         9.21479909223511   -1.78323491849603    8.29263361672750
C         3.86433569771301   -2.66994436922506    3.63686097979563
H         2.93746392712514   -2.85772560858682    3.11890065973027
C        13.51231213027675    3.51898832781173    4.54192405255416
H        14.23631845677346    2.74009761063985    4.74438070237002
C         5.60438219463681   -0.57669591935409    7.90929120577847
C         7.61545190863098    2.46804216976267    7.22812262199485
H         6.67568438621839    2.70903595510331    7.70076440819486
C         6.06190593407185    1.55808474397083    2.72655239845612
H         5.02281277397363    1.73506735708285    2.95988931480925
C         7.39602663238196   -0.07373191348833    9.41936716094007
C        10.80391334613290   -0.00033897559651   -0.88073783455697
H        11.04276930189049    1.02330265994585   -1.12998820179063
C         8.80369381701004    2.93908126118201    7.76588131526587
H         8.78799674927683    3.53606275015693    8.66495997275340
C         2.86941019069194    0.22130088963045    7.83666239749843
H         1.81851510818358    0.45814362385972    7.80773541841671
C        12.52339460477318    4.21959364568624    0.70209425863178
H        13.46428331721730    4.69018778351198    0.94435706124898
C         8.70461045312106   -0.09430234391906    9.88352593028425
H         8.98940229347084    0.55523638811381   10.69547850043120
C        10.00652190718776    2.65899252438596    7.14697941389373
H        10.92893344159173    3.04230547599117    7.55869210258995
C        10.24615610113811   -1.69006460678760    0.73445412211339
H        10.06324449176905   -1.98547864760474    1.76077926812966
C        10.49943818093603   -2.28142492458979   -1.57457708862608
H        10.49120268951695   -3.02661845966953   -2.35497341918115
C         7.63539887805582    1.69333626509314    6.08208608021576
H         6.70927498334491    1.33282143397952    5.65651805718836
C         6.22394825993714   -2.90169332503251    3.82850490793036
C        10.22706261335312   -2.64434702463246   -0.26503422423105
H        10.00612145550185   -3.67269451009904   -0.01991173865622
C        13.07409832595723   -1.63677654113956    2.43114169906478
H        12.71753461402060   -2.48766516781954    1.86805838375566
C        10.10453339778523    3.00548802506945    0.08116163000024
H         9.16176511931666    2.53212613284618   -0.15719662812974
C         8.31660972372271    2.35536385706522    2.55070744094130
H         9.04319712940175    3.14978403498602    2.65365365449104
C         3.69321210017790    0.72528928495184    8.81115394818857
H         3.32516605965746    1.39918225214038    9.56740782516397
C        11.67123140817901    4.79992528116519   -0.22144697956250
H        11.94542704428727    5.72598980255587   -0.70293207576886
C         8.84605745708778   -3.41013146941192    6.24618709238148
H         8.87367084936778   -4.49354209129418    6.15412128734891
C        14.07571785091277   -0.41720400613434    4.09248333202447
H        14.58199092090985   -0.17032797438726    5.01590251073614
C         7.80202904248847    0.07357512911267    1.99230441233138
H         8.10327106477495   -0.90262218340811    1.64350780338784
C         6.98716128577921    2.58358172111465    2.84846676230080
H         6.67101304725138    3.56158335246633    3.17892026741605
C         5.04694678613195   -3.20753978272559    3.15742761646632
H         5.05147517727917   -3.84156357796477    2.28631191082582
C        13.45359840156004   -1.64737025980662    3.80159095312393
H        13.38464450993614   -2.49452362602919    4.47058886360541
C        10.46370630182152    4.19087878766610   -0.53092973450610
H         9.80031535211475    4.64293502999586   -1.25281388748297
C         6.47166295831986    0.30717251643249    2.29775529051176
H         5.75172834094319   -0.49115236238328    2.19377911870875
C        13.93120878131669    4.77016834334585    4.13060362341129
H        14.98543610726593    4.97403559391525    4.01382356691537

