51
CSD_code = HOQBIB | q = 0 | S = 0 | Stoichiometry = C24H18Br2HgN2O4 | MND = 4
C         6.33847861237304    3.95936341629120   14.23715318310038
C         5.67156977692495    5.16208416879546   14.01701921446902
H         5.05084225456939    5.26256996902047   13.14017112364944
C         5.81306357665668    6.19694719278863   14.91971955571694
H         5.29464001561986    7.12791411078018   14.74886064745683
C         6.61588821524700    6.03848687666409   16.03878847248626
H         6.72567285493270    6.84746677754309   16.74498413840004
C         7.27548526590655    4.84089218061323   16.24833059896837
H         7.90194717835416    4.71281323886648   17.11813710952362
C         7.14502816957171    3.79148010422907   15.35262875238420
H         7.66126089820594    2.86203686594677   15.52492754309583
C         6.56908639078039    1.75481239200768   13.25451693675672
C         6.09595412668826    1.03201530773561   12.03276997480910
C         5.34262268637059    1.66292197577986   11.04964149535995
H         5.08353584139885    2.70806738659873   11.14971486872921
C         5.21015922875747   -0.25224865940218    9.81128404895683
H         4.83474638174725   -0.73003692973595    8.91586596076112
C         5.95792254472073   -0.96438543721875   10.73469756932922
H         6.17380427199138   -2.00687023043553   10.56388461423657
C         6.40989406014898   -0.31465991388880   11.86941190825452
H         6.99220613719216   -0.81733949732232   12.62735112402193
C         6.55969534420088   -0.39477327013916    2.93183671700954
C         7.56465037499883   -0.54474540440942    1.98818609232366
H         8.36916515814411    0.16829858123618    1.92142242494612
C         7.51629520519797   -1.62821560144016    1.12544852341501
H         8.29679849403359   -1.74742273039270    0.38919879559780
C         6.48656810910492   -2.54874574920638    1.19994092608082
H         6.46072856980026   -3.38774538730028    0.52124736254673
C         5.48766474434148   -2.39095732198841    2.14821891866444
H         4.68050346099834   -3.10438156676269    2.21279288385818
C         5.51994260627297   -1.31751586519181    3.01572840448631
H         4.75283081904656   -1.17412951915776    3.76089252596998
C         7.26687849704611    1.69982571609774    3.92649628875877
C         6.84956267401066    2.58474839017920    5.05852901744150
C         5.81694260085846    2.23707077451607    5.92157048980796
H         5.29124352762210    1.30104390255189    5.79138626876603
C         6.05214567969450    4.17382970160215    7.10994040395394
H         5.70245214509247    4.78086149653743    7.93470258760009
C         7.09444101482934    4.60361393777512    6.30496226010785
H         7.56811697537594    5.55273639817091    6.49824105294340
C         7.50314731665030    3.79808180941364    5.25703673149860
H         8.30528998159414    4.08151895635300    4.59185887126874
Br        2.81604332846556    0.35811833975951    6.96682645695034
Br        3.24707868697376    4.35354569649057    9.62460843514582
Hg        3.45988868534013    2.28993939467512    8.32606336345423
N         4.90599209925916    1.03607290158504    9.96330833475383
N         5.42319424452479    3.01398139708202    6.92406995658157
O         7.26026131323830    1.23043641581561   14.09097805454540
O         6.11410536078589    3.00406403834249   13.25294224784899
O         8.19095420932367    1.96686890724766    3.20060378941662
O         6.47861028504107    0.63064436490078    3.86650297380467

