49
CSD_code = HOQBUN | q = 0 | S = 0 | Stoichiometry = C22H16Cl2HgN4O4 | MND = 4
C        22.21179733684900    2.81471910644487    2.49616781224046
C        23.45643787700372    3.31024331195599    2.85502559397000
H        23.62081776328285    3.73394678518899    3.83137671942661
C        24.49086457038732    3.25145301688836    1.93450217477695
H        25.46090541894146    3.63610115538582    2.21124568990952
C        24.29313518217559    2.70911937730946    0.67741837142672
H        25.10789018330719    2.66934549253680   -0.02955075510343
C        23.04559471378830    2.21558991454403    0.32816459121722
H        22.88307386492639    1.78987343165985   -0.65020604258593
C        22.00408255371628    2.26623729059297    1.23283586902348
H        21.02460439211981    1.88830376920391    0.98393457108447
C        21.01227770079725    3.27233186042299    4.55286890413474
C        19.60933872233816    3.08497754223519    5.06710102695004
C        18.53566773597372    2.85060203451099    4.20683448660740
H        18.66829317030238    2.78689693635387    3.13545806376951
C        17.13190081213399    2.76808108378888    5.99713512795987
H        16.12599263365954    2.62685666349759    6.36941842728234
C        18.20972414518104    3.01632544597129    6.84137414567867
H        18.08648966617839    3.08628589103690    7.91292769475094
Cl       16.90115963629213    1.42541151120608    1.42101276129983
Hg       15.45968314009058    1.92954327179151    3.13370072697131
N        17.30318206188879    2.69036205910299    4.67898724729661
N        19.43477526868055    3.17149494850021    6.37985558973725
O        21.89243887655539    3.77335527117053    5.19525200465564
O        21.08065463441481    2.80727182837126    3.30547775238533
C         8.72310847221718    2.82350512960964    3.81557815841080
C         7.47177237470826    3.30404576861361    3.45945878044789
H         7.29924366304762    3.72214285420034    2.48210753543192
C         6.44115066821644    3.23708337666680    4.38364349123209
H         5.46611365035606    3.61004273614607    4.10884466566886
C         6.64925705151478    2.70167306735040    5.64202817445921
H         5.83730946661436    2.65498942770447    6.35178138023384
C         7.90352182853038    2.22382668938035    5.98880636617864
H         8.07405332166073    1.80358377160380    6.96814302002902
C         8.94138364504533    2.28258283507794    5.08034824085435
H         9.92558352974236    1.91605521426388    5.32724397144297
C         9.90775652405334    3.28141303645676    1.75053778296915
C        11.30682290295917    3.09478565983588    1.22560549377384
C        12.38792482323463    2.86339244097994    2.07754998964648
H        12.26427053353320    2.80309389622012    3.15005832454000
C        13.77620513848253    2.77367049799794    0.27569492663427
H        14.77846577702706    2.62994514513298   -0.10493248193923
C        12.69118322455569    3.01893001759402   -0.56024314663113
H        12.80508315664687    3.08561666654112   -1.63287032262302
Cl       14.01590896691592    1.44574355555190    4.85215402171955
N        13.61616053157300    2.70060006656807    1.59559508511556
N        11.47011336499797    3.17614393642918   -0.08874082353365
O         9.02123798742194    3.77634742579389    1.11208180171315
O         9.85038733541672    2.82275778433570    3.00070700884743

