36
CSD_code = HOQBUK | q = 0 | S = 0 | Stoichiometry = C15H12BClN6Zn | MND = 4
Zn        0.19361303318680    1.38891801239723    1.10607277631812
N         0.70906475971604    2.68812230918260   -0.50944433653754
C        -3.21279769216081    0.02114989114054    1.94208566087241
C        -2.18405814849088   -0.94257967332213   -1.47354983004396
C        -2.16435402760544   -1.55690175821099   -2.82159876019270
N        -1.18270317264136   -0.13190952168095   -1.03426019665985
C         0.01736773231689    5.22468312760368   -1.07055935011124
C         0.37573542609258    3.93125923863602   -0.77789850547928
N        -1.46227933247311    0.30787225086625    0.23233009679705
C        -2.62484310383426   -0.23592290339964    0.60941132156281
C        -3.09246595208591   -1.00181574789821   -0.45049312831689
Cl       -0.02709128357569    2.10953042830444    3.08788254443476
C        -1.39781422829804    3.60793599089677   -3.02805815816431
C        -0.71282937441095    2.76845118009149   -2.25293133092872
C        -0.57385668267140    4.20200052193156   -1.89252273760100
B         0.09300451579891    0.49868485618767   -1.39074779348276
N         0.05571552834843    1.90261677925532   -1.51462950666337
H        -2.54481979772476    0.64455962558434    2.53228347492331
H        -3.38180256210355   -0.91970924275755    2.46244072509458
H        -4.17227027754214    0.52444046825703    1.83387009926763
H        -2.00963857290540   -0.79531727569801   -3.58511230586600
H        -3.10885319035568   -2.05972747553650   -3.00627760616827
H        -1.35787742440854   -2.28662897405876   -2.89622694455355
N         1.54204537974854    0.03907175408917    0.48721926666878
N         1.31581665975068   -0.12677059150191   -0.84935740741880
C         2.32559512999003   -0.86251676495145   -1.38880462439466
C         2.36304695706428   -1.21271038707660   -2.82936489835973
H         2.25591697361823   -0.31953090589052   -3.44424156368098
H         3.30866996500262   -1.69317607174597   -3.06202419546943
H         1.55173794363168   -1.89679711424561   -3.07925416563538
C         3.18575857283753   -1.15311247286963   -0.36100418670090
C         2.67785860976313   -0.58374480753630    0.80171798303420
C         3.20674892540399   -0.58674842334196    2.18400307278705
H         2.53898319974265   -0.02792009939770    2.83663902638948
H         3.29892985012483   -1.60834257350650    2.54856784753004
H         4.19474566115141   -0.13051364979753    2.20573763674844

