59
CSD_code = HOQFUP | q = 0 | S = 0 | Stoichiometry = C22H32FeN2OSi | MND = 8
Fe        2.07442153301369    2.01861897155265    6.81843006521729
Si        0.71543300109160    1.05822698273839    3.50664380984579
O         2.64095584366903    4.84763848724551    6.60450957404292
N         4.13455533067891    1.74912872109222    4.62077714362567
N         1.75267070187763    1.62307604515523    4.74496474952447
C         2.36417940694586    3.72478357319926    6.68025670597304
C         2.93651477230538    1.80125482014827    5.17474183150020
C         4.37348885100119    1.50591986273954    3.21659993810348
C         5.28983186208413    2.10225849569280    5.40865881857411
C         0.76173408090360    2.15831509482117    1.94240815223073
C        -1.02136811678338    1.09898868571492    4.29013134545305
C         1.20441403623486   -0.71918450457712    3.02580698279442
C         0.50961830928308   -1.41896779689131    2.04405233486656
C         0.85647808091103   -2.71426619533114    1.70451421189075
C         1.91176700393676   -3.34030158681929    2.34621517776171
C         2.61470145851388   -2.66176309949264    3.32714189077902
C         2.26080470953155   -1.36657753224717    3.65815513266315
C         1.51758893493828    0.06958067165837    7.66144792902830
C         0.73338037997807    1.08447948979938    8.30770139337820
C         1.62298155767682    1.95127255916763    8.97482629148159
C         2.96686116179963    1.48846238839121    8.73504658609957
C         2.88496658654617    0.29374162726285    7.96881527244486
C         0.94353943779637   -1.14071839038264    6.99145543096270
C        -0.76119939231332    1.08748620691718    8.40118333099931
C         1.25627290182058    3.06533492052400    9.90582212398685
C         4.17949944869291    2.02663045015440    9.43388864091479
C         4.01704271778376   -0.62882046208962    7.63338547076439
H         3.44372782354068    1.20850143612066    2.74033670534894
H         5.10821470117762    0.70559382801077    3.09692016020536
H         4.75568695057912    2.40837999785063    2.73061557960940
H         6.00621261304496    1.27727871471084    5.42678748746656
H         5.78275052562921    2.98422008173567    4.99236979909272
H         4.95391099336903    2.32414767807102    6.42032687311101
H        -0.10005053411951    1.96626247106560    1.31117390742833
H         1.64946819204795    1.99577194130725    1.33798963278867
H         0.73814510361547    3.20716415251260    2.22014521738595
H        -1.73859661646778    1.59292492949987    3.64348030465878
H        -1.40360481465104    0.10366613380516    4.49607970844384
H        -0.98327930263845    1.64845833932584    5.22611181220853
H        -0.31720285971766   -0.93974155187170    1.53926587999034
H         0.30296372166572   -3.23953204637146    0.93880330042528
H         2.18410859715383   -4.35252259490252    2.08357286317860
H         3.43895685630471   -3.14598480974974    3.83294307498688
H         2.80829500941413   -0.83849850954883    4.42541679810495
H         1.72906448864565   -1.79208730373306    6.61842480608099
H         0.31220365888164   -0.85888816778115    6.14997114948506
H         0.33581786948533   -1.70789526806864    7.69856012816609
H        -1.19999156758517    0.58697075427761    7.54196583507452
H        -1.14806375863535    2.10324949862769    8.44372157320681
H        -1.08579504791352    0.56326107645640    9.30316187249832
H         0.25931789474363    3.43888642967862    9.68879484092860
H         1.27306035178618    2.71045886958888   10.93826985513548
H         1.95805208841463    3.89119738330258    9.81963659552393
H         5.09528459915474    1.68889780432706    8.95488814022496
H         4.17394624723211    3.11437185433474    9.43376134016447
H         4.19564106778803    1.68910579890315   10.47208854906366
H         4.04128290806758   -1.46302785373210    8.33742488376850
H         3.90845351977530   -1.03756842852586    6.63091521329131
H         4.97168412028939   -0.11242112537824    7.68899577803399

