97
CSD_code = HOQQUB | q = 0 | S = 0 | Stoichiometry = C46H47ClNPPd | MND = 4
Pd       18.04527803639988    2.84675188450631    1.94555349672779
P        17.21674221417173    2.50716370180855   -0.10162311604789
Cl       16.97967613787705    0.98351729211179    2.92046075921104
N        18.66949543835959    3.28926233412345    3.91416541579269
H        19.59642073863655    3.70341230452787    4.00949683641161
H        18.53956289425376    2.48699315610920    4.53260739486366
C        19.05306357845224    4.51364151727815    1.46507648951552
C        20.06335282085012    4.66263715340582    0.53111917454981
H        20.31450628571981    3.83478427444188   -0.11807687827468
C        20.76021911420318    5.85719628397350    0.41225453290968
H        21.54847102357818    5.95088100011510   -0.32263045798543
C        20.45063593927096    6.92766711816379    1.23200484605637
H        20.99054893281068    7.85912089943579    1.13980030217482
C        19.45007318811034    6.79909358429052    2.17837863395075
H        19.21611742539399    7.62287020953680    2.83902374422807
C        18.75849992540623    5.59939257506738    2.30633795128866
C        17.68256594406014    5.43981423467992    3.30658331190092
C        16.69369849261339    6.39549192620259    3.49363808858536
H        16.74379082164739    7.31657725550110    2.93116308764772
C        15.63467880130514    6.16236211805283    4.35647128688348
H        14.86816825897985    6.91209549651950    4.48201573413856
C        15.55003617211473    4.96138540964280    5.03752445314964
H        14.71665475736280    4.76598873370377    5.69526663773057
C        16.54416387420100    4.00637461737504    4.89407740842893
H        16.48509458402845    3.07281489736280    5.43725348751338
C        17.61168997121850    4.23341337602696    4.03345129628588
C        18.56327268129282    1.66707914845504   -0.95165115755087
C        19.10055872186522    0.54215086023950   -0.05981977169142
H        18.40826313388900    0.25477827813764    0.73612930441172
C        19.46945210016828   -0.58858633239598   -0.97470143770459
C        19.00581856122367   -1.88626467991159   -0.90015491524738
H        18.32148749699849   -2.17649397015984   -0.11682301069033
C        19.43470728342927   -2.80731761931469   -1.84507499912090
H        19.08033407807864   -3.82632184775372   -1.79825658642846
C        20.31086207270212   -2.42962939833313   -2.84840873948946
H        20.63583635868955   -3.15573226321645   -3.57887294408644
C        20.77541579696437   -1.12423002181578   -2.92600401642416
H        21.45702236447350   -0.82926122572383   -3.71080123438613
C        20.35169998661750   -0.20911231013717   -1.98398145496681
C        20.72858046872783    1.24664942211350   -1.91276644949721
H        21.40499359929232    1.55897737763836   -2.70861316748485
C        21.27904516394109    1.47994759681582   -0.52430691089625
C        22.48919358529450    2.05576284351591   -0.19502742840468
H        23.19256700642457    2.33907544434436   -0.96482108186073
C        22.78010007080547    2.28427960997710    1.14390830562009
H        23.71999425478223    2.74420553337591    1.41124726850622
C        21.87989407029078    1.93732647776648    2.13711702396478
H        22.13310528989019    2.12154665006136    3.17176929056079
C        20.66335262013147    1.34239999124736    1.81515527832861
H        19.97836413516340    0.99214602039480    2.58803737724019
C        20.38342931195862    1.11304461225866    0.47914942618224
C        19.40369327425647    2.01564670568207   -1.93333747578370
C        19.19920870249219    2.94425429868551   -3.05183477600852
C        19.83341691881641    4.18036068201759   -3.10841337174845
H        20.45283030337864    4.50125829079738   -2.28510960587496
C        19.66289738269455    5.00333577824264   -4.20720582879278
H        20.15045350338617    5.96708197514747   -4.23457788081253
C        18.87742846956263    4.59431552084396   -5.27136321359225
H        18.75019067680172    5.23677764984466   -6.12987664405052
C        18.26147431737744    3.35474489626719   -5.23364182332350
H        17.65640042044113    3.02499120192999   -6.06528485555500
C        18.42005986544993    2.53417995119900   -4.13130063123580
H        17.95141388552099    1.56029729541062   -4.10251393215024
C        16.76663214354194    4.07819921424549   -0.97794841754993
H        17.74792189053860    4.53443663311136   -1.17577311607414
C        16.01318993362515    4.98786129015764   -0.00170024258449
H        14.99642201831456    4.61774600940275    0.14421071212580
H        16.50962916540371    4.98847503576011    0.97642064141998
C        15.95342468220379    6.40001795839995   -0.57309852261935
H        16.96951578738251    6.78354360077722   -0.69136624132509
H        15.42236547670780    7.05956487952858    0.11611720786166
C        15.24570230817318    6.38675415107439   -1.92665570544810
H        14.20540349585048    6.08392262490718   -1.78358520509243
H        15.24303161879205    7.39045961141459   -2.35634736228060
C        15.92429989015185    5.41461134865480   -2.88918438137776
H        16.93894571513727    5.75748052268198   -3.10344986487853
H        15.37663853899246    5.38545149454600   -3.83373720922182
C        15.99034933456384    4.01033930321555   -2.28829480064067
H        16.47299885075781    3.33209759236737   -2.99147115876456
H        14.97427083003827    3.65673543596790   -2.10378356589532
C        15.85265173434542    1.25474066619039   -0.19692730119666
H        16.20003899840266    0.45768392905287    0.47558492760929
C        14.55453987054008    1.79373058708458    0.39801493595939
H        14.76433405485023    2.22733620579935    1.38257196805289
H        14.13553182343276    2.57266338031488   -0.24308485890505
C        13.54708757548354    0.65468032173826    0.52435531945797
H        13.93668751234273   -0.09068242928219    1.22019728862464
H        12.60633256745777    1.03293051363146    0.93003884301035
C        13.30470399325366    0.00928744539067   -0.83809825974891
H        12.59797525084256   -0.81681174635614   -0.73636124311417
H        12.86120703662330    0.74540898354705   -1.51403324878907
C        14.61301683537914   -0.50141477792573   -1.43765574037417
H        14.42532835055251   -0.94824380021275   -2.41662264267135
H        15.02836372250212   -1.27638434148348   -0.78985187317596
C        15.62353916191001    0.63683843137976   -1.57298277191827
H        15.23557307857953    1.38005091114213   -2.27021075512431
H        16.56672344902280    0.25432121616537   -1.97314920293564

