71
CSD_code = HOQREM | q = 0 | S = 0 | Stoichiometry = C30H37ClNPPd | MND = 4
Pd        3.50668680182345   16.29151752516638    7.07759131877936
P         1.41937431164827   16.12161161335452    6.35089830786483
Cl        2.88803935603221   17.09048656508342    9.19702458474302
N         5.49231938828409   16.66489810645512    7.72039015920441
C         5.46520849971001   17.90728433547582    7.02104651664431
C         5.48414455411177   19.11449728204417    7.70932973651946
H         5.48293970890583   19.11312445956803    8.79089667409547
C         5.47926834341877   20.31359896685068    7.01348875912603
H         5.47687074619750   21.24472120938404    7.55947470182542
C         5.49025610208314   20.31562263968673    5.63059709272872
H         5.49855583350244   21.24967641889768    5.08945398289487
C         5.47061779151227   19.11618186288735    4.93640207516756
H         5.44713019104676   19.11531248623776    3.85616148762274
C         5.44417982146482   17.90273732217675    5.60981720384510
C         5.31485106778545   16.61239481034639    4.89871164307741
C         6.06844284444518   16.33683165886196    3.76318933082191
H         6.79095525163411   17.06134637113535    3.41240317979010
C         5.91077986230934   15.13238172943687    3.10123103611650
H         6.49883544583876   14.91985512298544    2.22006352095625
C         5.00216732500147   14.20238534843825    3.57374215253843
H         4.87616030118584   13.26006527753438    3.05924959475687
C         4.24571533591118   14.47606709333538    4.70484324441339
H         3.53351730663161   13.73687579547611    5.05099729353567
C         4.38017340522683   15.67956508383168    5.37887166620713
C         1.14476682204460   15.89482181763744    4.56161657240795
C         1.97937862245028   16.62848230242892    3.72000266835309
H         2.74381485129491   17.25738082036389    4.15870091249734
C         1.85653267630494   16.53817238138356    2.34753974322783
H         2.51276042196634   17.11063809216496    1.70883110893520
C         0.90037874405156   15.70242587999362    1.79295181839153
H         0.80681891456481   15.62089554192055    0.72021502569587
C         0.06945451815280   14.96695054540939    2.61962558661547
H        -0.67549042853916   14.31184492273421    2.19158109172219
C         0.18695530004691   15.06261797292517    3.99611332916691
H        -0.47408416630526   14.47866489563747    4.61814493280696
C         0.48671487833205   14.76860370585603    7.21164260485528
H        -0.41167299825821   14.49735711147733    6.64530221476547
C         1.46314654736160   13.58685165941752    7.24495333646781
H         2.40173792184427   13.93081816206449    7.72298132750135
H         1.69465803446094   13.28142766485648    6.21958132922794
C         0.89740586649138   12.40437131173121    8.02307094142550
H         0.00799911118500   12.02440510725816    7.51274657399272
H         1.63358809196344   11.59855523588788    8.05469204369712
C         0.52500481922100   12.83410001131708    9.43747708897229
H         0.11662900778702   11.98684146674314    9.99212365677688
H         1.41977302302461   13.18096760255049    9.95784505396616
C        -0.49291815609825   13.96738269422295    9.38324015819940
H        -0.76480413368477   14.27352927573520   10.39495292139108
H        -1.40096999604960   13.61662841951775    8.88400732100395
C         0.07857268015070   15.16570385395995    8.62991848091767
H         0.95422248766235   15.54339847281085    9.16352803679848
H        -0.67110750469318   15.95918025988293    8.59694296889788
C         0.56748391147968   17.72303461475832    6.71731726314735
H         0.49455659501569   17.75537596923529    7.81192685662993
C        -0.81900895514720   17.86695071055902    6.09952212544380
H        -0.73888477766284   17.84180325574915    5.00932512037220
H        -1.46281205953209   17.03936376914585    6.40744479554519
C        -1.43205603160132   19.19588788881191    6.53878101379512
H        -2.41877323766451   19.31635906247959    6.08625663164269
H        -1.55858267790493   19.19193489628063    7.62377056645014
C        -0.53194059092877   20.36327971854183    6.14133917950898
H        -0.97418701347716   21.30159741192564    6.48189185637967
H        -0.45622326353934   20.40466563085941    5.05193135611690
C         0.86462925874260   20.20007234681720    6.73727467959494
H         1.50313192963288   21.02906058098310    6.42553321909307
H         0.80342159073428   20.21405996003838    7.82715191697524
C         1.47363223229035   18.87745050879082    6.28418949592018
H         1.57329275451642   18.88542018356364    5.19553462734586
H         2.47595306519624   18.74475633911406    6.72754586945878
H         5.53420536064952   16.79574390343703    8.73257033256129
H         6.21500635674545   16.02722697638188    7.38678898208886

