65
CSD_code = HOQTIR | q = 0 | S = 0 | Stoichiometry = C29H28Cl3O2P2Rh | MND = 6
Rh        0.99211725535756    4.23469305306975   16.24107013526694
Cl       -3.41681927058355    5.39100395165199   15.25274387417544
Cl        1.15599025469966    5.03596581926036   14.09461054753014
Cl        3.42949731017752    3.77415836886593   16.34355820198790
P         0.76188501438272    2.17256029475292   15.21428946919578
P         1.50578527368564    6.40468692995988   16.86610218997933
O        -1.65331621549715    4.31430368112202   17.23005813363109
O         0.83096320846115    3.17162130991472   19.03151937912057
C        -1.01898572325124    4.58606585072887   16.24668406757418
C        -1.66538056421730    5.18076844332929   15.01347053813105
C         0.88816851207461    3.57771881363657   17.97122954336928
C         2.01003158287485    1.82634153705423   13.93309359478519
C         0.93500899920394    0.68310098563598   16.24879742268379
C         1.95357625804002    0.66534487078151   17.19748165573561
C         2.16046226616511   -0.46020628026840   17.97302756768362
C         1.35541597363944   -1.57517974315699   17.80523965776708
C         0.35360228008388   -1.56741047838778   16.84903498842771
C         0.14327382071567   -0.44512901809850   16.06757162096297
C        -0.84935319737610    1.97139230284381   14.40790514507962
C        -1.96627176357540    1.80497835134278   15.22756873833705
C        -3.23038689078182    1.74822935583673   14.67493493455178
C        -3.39208806810680    1.86963874810996   13.30274922213411
C        -2.28743246592701    2.04417329630779   12.48663213886705
C        -1.01600513666715    2.09959354646056   13.03390877716854
C         2.91509890312771    7.13536325524539   15.97181884076691
C         2.02171406275343    6.70580135943495   18.58706518667765
C         2.86709157690080    5.78173875637574   19.19382634547832
C         3.32658938854936    6.00104613401964   20.47940088523733
C         2.94936047083245    7.14395879601875   21.16524521242587
C         2.12417487925959    8.07520320369871   20.55670221489505
C         1.66285731315226    7.86275091568218   19.26990317957496
C         0.11433284501380    7.54078510133694   16.61914289689404
C        -0.96718849855351    7.43636574054878   17.49437136568384
C        -2.09941638519078    8.20044425562057   17.29265370646652
C        -2.16739262425256    9.06485450825145   16.21010900047822
C        -1.09994363496969    9.16536114021397   15.33418035714975
C         0.04001914832716    8.40335044880837   15.53167249544464
H        -1.52707230300119    4.53025989954435   14.14912949301952
H        -1.24403998315156    6.16143780103639   14.78905461783589
H         2.03310437485227    2.63548141718707   13.20383212689373
H         1.77883390303447    0.87099409212200   13.45902219386600
H         2.98053451787162    1.77530198700861   14.42894639673833
H         2.59185555913831    1.53184957427161   17.31332118985406
H         2.95067760724895   -0.46681343402030   18.70873979779432
H         1.51170613764423   -2.45233588678211   18.41537318464897
H        -0.26775957096106   -2.43973011913133   16.70849404600322
H        -0.63663218584435   -0.44768696360408   15.31940534757877
H        -1.83198421859213    1.72749015403982   16.29900876648366
H        -4.09134440022273    1.62263169707061   15.31362973305123
H        -4.38142635760985    1.83636870546134   12.87213481491112
H        -2.41406807529547    2.14644432171021   11.41895223859600
H        -0.16023165155945    2.25693964570437   12.39466737476541
H         3.80351376930280    6.56255215894257   16.24211874802814
H         3.03087752932727    8.17625664624192   16.27837941097623
H         2.76104031262820    7.05352753886081   14.89640825302528
H         3.17661541932522    4.90009541076117   18.64790933173052
H         3.98018606328158    5.27904967890655   20.94559261438296
H         3.30262693735683    7.31272148670776   22.17165215568446
H         1.83850754095702    8.97298419666060   21.08504105309532
H         1.02279657276144    8.59507143716012   18.79840784231459
H        -0.91112013666778    6.74760681780301   18.32777555229102
H        -2.93463436231432    8.11343265150660   17.97073060758034
H        -3.05725246828059    9.65354000478431   16.04609272314853
H        -1.15600448469404    9.83294197070531   14.48705108330466
H         0.86125779479584    8.46994950335325   14.83375607101547

