58
CSD_code = HOQWEQ | q = 0 | S = 0 | Stoichiometry = C29H22Cl2O2P2Pt | MND = 4
Pt       17.22392398118242   16.37148293682964    3.14406391460483
Cl       15.96263759053683   18.09132066572329    3.98690831350556
Cl       19.29689368696869   17.11259554484026    3.78803633081148
P        15.28815099537310   15.58922312985919    2.24211372523820
P        18.29673895858028   14.49873913640610    2.42980302340136
O        18.17076510865243   11.62138999089740    0.71659746323979
O        13.66211994042144   13.08161974205346    0.72477744473441
C        13.71441710603865   15.36443495696024    3.09023400073005
C        13.49515509559028   14.20301795238358    3.82517544363605
H        14.24997693732603   13.42687549512783    3.83908953831825
C        12.31445630583253   14.04992001937565    4.52644327706459
H        12.13484405285191   13.14506965810202    5.08799132255807
C        11.36456026446502   15.05933639980475    4.51347386306265
H        10.44350211572380   14.93700367903795    5.06368147460544
C        11.59673034571807   16.22843280633943    3.80626965659000
H        10.86047624302509   17.01828138399668    3.81074229130708
C        12.77248866274531   16.38839796350566    3.09708390376377
H        12.97106221164954   17.30076575341642    2.55238774768007
C        14.93812738338171   16.49554069838130    0.71185978279236
C        13.79451595818009   16.24481538038813   -0.04075656073719
H        13.08064967998407   15.50464042586992    0.29121968010685
C        13.58969806689733   16.94830950541370   -1.21374922346150
H        12.70251491490134   16.76259081292529   -1.80070863350589
C        14.51763981853110   17.88803334720501   -1.63712852871879
H        14.34853262152298   18.43456249079806   -2.55307196671816
C        15.66024119200536   18.12914237430608   -0.89065614651218
H        16.38063914699966   18.86202456531328   -1.22151726644854
C        15.87429541216875   17.43132887896183    0.28386867023994
H        16.75986653381226   17.61731230233116    0.89023257995915
C        15.72118458530830   13.95981916176476    1.58226905972976
C        14.85284552926966   12.98798472525258    0.90180895352553
C        15.75553142822630   11.85661378320795    0.43676897068845
H        15.69823846551914   11.72968016213813   -0.64604249912449
H        15.46243700694730   10.90485525055402    0.88435427923564
C        17.15533786288528   12.25487889640041    0.87658278481116
C        17.02402009553487   13.55083975223636    1.55773840376721
C        18.63235302361856   13.41636310432995    3.84373427540145
C        19.32161863697903   12.21596445870685    3.69908195415800
H        19.68275374483482   11.91396993353484    2.72644887493617
C        19.53086283872804   11.41889968928728    4.80979618585914
H        20.06908110775569   10.48843254467378    4.70650028195717
C        19.05283100773644   11.80980833010713    6.05155123179875
H        19.22353777561796   11.18275363014403    6.91406415552758
C        18.35770748651841   13.00071827776291    6.19093948340709
H        17.98731497869056   13.30315478482021    7.15889211474661
C        18.14358306512456   13.80519522324535    5.08677321806607
H        17.61183343447382   14.75108972206036    5.17962848279219
C        19.74881979996083   14.44114636801112    1.36463640415061
C        21.02417583908592   14.41984858421782    1.92020004329785
H        21.13855161677918   14.38994485361865    2.99467457682838
C        22.12959344723645   14.44489216189625    1.09042304106411
H        23.12154305872663   14.42438758672401    1.51651738022900
C        21.96624198898481   14.50075863939642   -0.28470194858410
H        22.83231567118265   14.51715670077798   -0.92944375138170
C        20.69541365624725   14.54644199058303   -0.83631652598606
H        20.57204590649905   14.60114594103278   -1.90783111875756
C        19.58460884840670   14.52798887620276   -0.01479371847762
H        18.58739776205477   14.57745887075543   -0.43381971551272

