77
CSD_code = HOQXAM | q = 0 | S = 0 | Stoichiometry = C33H40ClPRuSi | MND = 8
Ru       16.09110230636809   11.20268808046844    7.90823384765930
Cl       15.29117898147293    9.19431798119655    8.90845845417108
P        14.06897592282474   11.76921834728707    7.03731572468464
C        12.67547999646800   12.14484228114526    8.15833647257552
C        12.41531224998229   11.18981989201507    9.13724858655659
C        11.34514882449758   11.34957471136035    9.99698144775557
C        10.53185273193707   12.46664585397652    9.89178375434311
C        10.78883315984053   13.41898394925552    8.92056824222874
C        11.85264545611775   13.25962920344312    8.04911738939645
C        14.16966445179641   13.29372919758853    6.04436017918559
C        14.55318801475837   14.44120852605179    6.73733099304723
C        14.71016883069530   15.64137507633224    6.07284852318319
C        14.50798556905415   15.70320681942080    4.70158608155828
C        14.14859191807868   14.56270864714023    4.00430951876350
C        13.97731037306939   13.35936985953546    4.67017116934863
C        13.20659733414653   10.59699534185421    5.93555761299587
C        11.99552424385088   10.93303349848078    5.33493696495428
C        11.35899292322504   10.02226130631420    4.51376732329951
C        11.91700930261650    8.77132986916947    4.29503724279531
C        13.10799173853028    8.42582797335837    4.91004046511824
C        13.75041319137176    9.33614332858577    5.73130144571255
C        15.66448757710265   12.24816515066593    9.39778925563449
C        15.49969552640386   12.85967715488112   10.51369515166315
Si       15.62157080201333   11.83111414974543   12.12388617091700
C        13.97711822050819   10.91960473127869   12.42665780499076
C        17.05017880256282   10.58606830509549   11.96757574686107
C        15.96026964835019   13.09770115407199   13.51314658095735
C        18.24014028551385   11.79838608385240    7.84566636223380
C        19.01274023882660   12.68479825396239    8.77559776872992
C        18.15438251042011   10.38090043305900    7.90046719728724
C        18.86625220855481    9.46291105464101    8.84732927747309
C        17.53158885668567    9.92548033999845    6.67516409521400
C        17.47264437667375    8.48424913967306    6.26815534593093
C        17.20134893932586   11.04929912007728    5.90161696857123
C        16.74271745188281   11.04618200754965    4.47372662047444
C        17.58730997928861   12.23169571119419    6.64282786735367
C        17.71576377712882   13.60840552070611    6.06147614271380
H        13.06592040530057   10.32838926521767    9.21363363154799
H        11.14227047481852   10.60201006453515   10.74909294042082
H         9.69590047061774   12.59473447557449   10.56418675599979
H        10.15375239442860   14.28915250886399    8.83537063854012
H        12.04044664045691   14.00714189462047    7.29111823849191
H        14.72940243709455   14.36207895107829    7.80384648428928
H        14.99628076779957   16.52987270897101    6.61682749061065
H        14.63548439069182   16.63895653909278    4.17755509992728
H        13.99960824150918   14.60798318538570    2.93490691162660
H        13.69127861937543   12.47418586700388    4.11911427134108
H        11.55661990292281   11.90431322158368    5.51923660151861
H        10.42140061236300   10.28412304420120    4.04474771314860
H        11.41480485250495    8.06368963114566    3.65154604736646
H        13.53298118273893    7.44470094040878    4.75492639650460
H        14.66328228061035    9.06632251741112    6.24516291242138
H        15.28008626596247   13.90791906347376   10.63500244518527
H        13.84788655745132   10.13991846117874   11.68313489969471
H        13.12568243728855   11.59014329128697   12.35513567297352
H        13.95606319944363   10.45468691575851   13.40766369617866
H        18.01899171477958   11.07650165015733   11.93568894591242
H        16.92459368864404   10.02333507706147   11.04678724105422
H        17.06419904979610    9.87719436179960   12.78984030136473
H        15.14053127235858   13.80172053569292   13.61530808166768
H        16.86581846383233   13.66805845312730   13.33147987322932
H        16.07667845610956   12.59257558325644   14.46591977080226
H        20.02504879697636   12.82572126680120    8.38907791579939
H        19.07961940656509   12.24750451928136    9.76926261796665
H        18.54141204487826   13.66155015277701    8.86575891754114
H        19.74501512066082    9.03897696141029    8.35481202273565
H        18.21841520265048    8.63953876899825    9.14824647356562
H        19.19269852164447    9.99102378933374    9.74010737557130
H        18.48691450023467    8.09233665040689    6.16577292019156
H        16.95943033278408    8.36110919703532    5.31623447810783
H        16.95842888335303    7.88751831238147    7.02325111818166
H        16.12002048650659   10.18064501207403    4.25251807928656
H        17.61386645107926   11.01892699548068    3.81424729136714
H        16.17192430880571   11.94354307253588    4.24092988864145
H        18.71324433187500   13.72965855363347    5.63115695254932
H        17.58117887887765   14.37201451439787    6.82557653552296
H        16.98364123224459   13.78137597115875    5.27574455481221

