90
CSD_code = HOQXIU | q = 0 | S = 0 | Stoichiometry = C41H46P2Ru | MND = 8
Ru        1.89250398489473    2.59976168452712    8.31625034429169
P         1.55340950440737    0.49025013384086    7.55820578089520
C         0.27705922837089   -0.06161783072187    6.38410485457277
C        -0.36554591905517   -1.29017271234514    6.49088108457949
C        -1.32793474935421   -1.64515445872958    5.56291254029805
C        -1.64755329040160   -0.78273810896535    4.52625601259075
C        -1.01013633130850    0.44296697670057    4.41904346563391
C        -0.05363572538829    0.80405197065802    5.34968664399930
C         2.95352959688114   -0.61839188516922    7.15415553572356
C         4.12926100960501   -0.36218552782316    7.85425085087124
C         5.25780119444415   -1.12851383471670    7.64047761717942
C         5.22676670100851   -2.14812371858442    6.70147622226686
C         4.06869688179923   -2.39029430320876    5.98139936926720
C         2.93278234864520   -1.62913155541096    6.20127406682331
C         0.98871304622067   -0.20795045035561    9.20259363318913
P         1.59019078070116    1.29062310277872   10.14031771385792
C         0.30721653161439    1.55334358121173   11.41133303645752
C        -0.26698947268981    2.81129286793715   11.52442073534742
C        -1.22449215354148    3.04950182945031   12.49382177574156
C        -1.61515744738186    2.02752954084009   13.34335491913040
C        -1.04569619951021    0.76855186583615   13.22867635035539
C        -0.07963659497392    0.53025674526727   12.26930640996837
C         2.92048723644226    0.69539167121461   11.24603961320831
C         3.30016122090506    1.60150091046138   12.23617649516081
C         4.35773338174354    1.32441664186379   13.07911159370170
C         5.05806243776408    0.13604414969752   12.93784692687948
C         4.69344053399096   -0.76522963540388   11.95227197426768
C         3.63435867627872   -0.48840184322082   11.10486120295501
C         1.94852726853372    4.82351344050920    7.94866721323408
C         0.85734803148307    5.85186367773594    7.99139241676733
C         2.35149654220244    4.10944199716018    6.77232103646771
C         1.83098660024237    4.38682149900696    5.39135906817205
C         3.56273571302061    3.39392077934373    7.08876567908881
C         4.43692849656306    2.71554847958179    6.07439535812975
C         3.86580848722391    3.61622978568360    8.45791523925156
C         5.14504634214005    3.26961759538898    9.16556587798079
C         2.85268030942976    4.49472493040299    8.99755480657245
C         2.94767171066866    5.18338346897468   10.32875111213399
C        -0.13681527149631    2.47712863221218    8.30505288121518
C        -1.34359749323607    2.48662560544565    8.24885851898285
C        -2.80706825057148    2.50619664275566    8.19364313008128
C        -3.28048333458990    3.89571480461029    7.75071942752989
C        -3.36737230865775    2.18675581043253    9.58518768214356
C        -3.28480439567299    1.45082634941456    7.18871839736309
H        -0.11015748402033   -1.96355666249426    7.29841163932844
H        -1.83232125803320   -2.59748999902135    5.64670820803054
H        -2.40064461705168   -1.06528318206491    3.80506785505093
H        -1.26641534452959    1.11582211983910    3.61305276453481
H         0.43873782651711    1.76642809796959    5.30728074065005
H         4.13499899166848    0.45431869646734    8.56930400468651
H         6.16260641662290   -0.93030540881390    8.19793335056299
H         6.10779786554236   -2.74786242769161    6.52475667525625
H         4.04953539341264   -3.17754815030603    5.24129891182948
H         2.03425818405091   -1.82024484989975    5.63196838538773
H        -0.10717898501206   -0.20772927710119    9.22720358730488
H         1.38432537463471   -1.18488332033225    9.48848835141789
H         0.03757313692170    3.58043775773848   10.82577520234719
H        -1.67048622384157    4.02950267967971   12.58869994385084
H        -2.36715459410534    2.20995223286789   14.09734694370997
H        -1.35551873231464   -0.02566277149975   13.89296824288579
H         0.38087688818988   -0.44528627056261   12.17982815676824
H         2.74020669838095    2.52393936925014   12.33614851742582
H         4.64074709399654    2.03196691883799   13.84546280590330
H         5.88738016302074   -0.08456489125107   13.59373102018041
H         5.23897834041907   -1.69141865692453   11.83948672173290
H         3.37349246333207   -1.19983805850013   10.33461270081911
H        -0.05549002183068    5.46985758975910    7.53565736068309
H         1.17051786581424    6.74217918270857    7.44086511154734
H         0.63207669697626    6.14294391718135    9.01507882655507
H         0.74632307833224    4.48745076159449    5.39765964945263
H         2.10368324225003    3.59172699535092    4.69917146827331
H         2.25578910861394    5.32209660341535    5.01611067372378
H         3.84200937072665    2.16424004808336    5.34575845663841
H         5.12395517721137    2.01280721990944    6.54243822756927
H         5.02498319580621    3.46430114323816    5.53776857879440
H         5.78078371554717    4.15624039849296    9.23321149895620
H         5.69655945069496    2.49954013838379    8.62903301511496
H         4.95976283033913    2.91096177684336   10.17937823748040
H         3.47208375812954    4.56254968537621   11.05309552838409
H         3.50308415368578    6.11881630849009   10.21909065563123
H         1.96285159079676    5.42009508099682   10.72908165103800
H        -2.93054693616482    4.65391792674341    8.44876085514043
H        -2.88749904116753    4.13080090492769    6.76328260288257
H        -4.36824371351218    3.93397424047462    7.71048901015604
H        -3.00574634281817    1.21859070247046    9.92742500170282
H        -3.04678893265379    2.93655311514000   10.30510247659589
H        -4.45619545454100    2.16543874305620    9.56181735333228
H        -2.89392600860791    1.66700473674587    6.19668504642279
H        -2.93174481226156    0.46284042247164    7.47903414500758
H        -4.37290442858947    1.43388710567800    7.14139522494631

