75
CSD_code = HOQYER | q = 0 | S = 0 | Stoichiometry = C36H35O2PRu | MND = 9
Ru       -0.59705157757027    8.66444439588366   13.10110725099814
O        -2.43864077801829    8.71062254113527   12.37261569846826
O        -2.16236633802090    7.45580832815925   12.75432150550153
P        -1.49096950843062   10.12116626797341   14.63887394420095
C        -2.46757025148802    9.37051905578027   15.97773521848040
C        -3.23759320554908    8.25753376742778   15.65015642246667
C        -4.03264564815104    7.66181210739804   16.61207514921166
C        -4.06331469596593    8.16887731712807   17.90163324568751
C        -3.29345337316592    9.27262784569509   18.23059418473851
C        -2.49677886690893    9.87688892296553   17.27342169003445
C        -0.25455848790952   11.11163252653240   15.53335579659417
C         0.58051535272249   10.45793761182546   16.43770765699744
C         1.57520795177079   11.15686464348738   17.09494140266230
C         1.75474095430166   12.50994533722132   16.84865378227962
C         0.93493685089935   13.16137008479644   15.94250381857969
C        -0.06639138207964   12.46711460213692   15.28432168365166
C        -2.64056107150258   11.39677719801009   14.01974070050635
C        -3.37934441146296   12.17246901987155   14.90929316568580
C        -4.22042872695549   13.15986054667368   14.43109082793709
C        -4.33272076908085   13.38080394320118   13.06727784615057
C        -3.60514306304345   12.60637146827859   12.17953053347774
C        -2.76149123386904   11.61776567352983   12.65425225042814
C        -0.22186876388270    7.65709768918737   14.79057519952127
C        -0.00273583058272    6.97458683895032   15.76581276761552
C         0.25102436876230    6.22179863765688   16.93924028883672
C         1.30140704265785    5.30522761487298   16.99414381631514
C         1.53372166668352    4.58283447457476   18.14848081141513
C         0.72610666306520    4.76203608337764   19.25983060783608
C        -0.31863861335173    5.67124294375597   19.21183226605219
C        -0.55758696634583    6.39988778398168   18.06362418841104
C         1.28351330099991    7.80396654058299   12.34338529663237
C         2.03629819057429    6.58211715057469   12.77305294532928
C         1.50397808403888    9.14256022962458   12.84205408989063
C         2.59764174202344    9.52817658088671   13.79473124459677
C         0.77873049952611   10.05084910617956   11.98565712932244
C         0.94731935354026   11.54027476418290   11.97921235145972
C         0.09547610947491    9.27554453050020   11.01355950943123
C        -0.71443673674596    9.77049645108654    9.85715469239627
C         0.39574619727391    7.89590805963601   11.23660330289279
C        -0.08813573411961    6.77647217879886   10.37083119252830
H        -3.18616184454295    7.84639713957493   14.64920030643721
H        -4.62280776699719    6.79385671755979   16.35904373786682
H        -4.67856093814041    7.69821133048162   18.65477077216127
H        -3.30818361271713    9.66235694566670   19.23855337314942
H        -1.88567375551764   10.72807411131639   17.54157795516037
H         0.43658809622692    9.39993321699284   16.60821587915063
H         2.21452464284678   10.64667819551769   17.80027336195229
H         2.53297732306181   13.05555524528185   17.36163684471425
H         1.07411631427540   14.21494259214716   15.74687449452486
H        -0.70878504555195   12.98083367358494   14.58239208859333
H        -3.29610868234324   11.99873973648183   15.97246673655269
H        -4.79406398074617   13.75827474291361   15.12391157950886
H        -4.99360826614180   14.15124366298140   12.69796290283287
H        -3.70021844395827   12.77053293154267   11.11580323721634
H        -2.21270896548933   10.98807994922197   11.96990999795892
H         1.92648053258813    5.16185226083805   16.12389162933580
H         2.34740817019148    3.87197746763766   18.18269513861026
H         0.90942378134627    4.19336341658320   20.15999542157194
H        -0.95050154559880    5.81262975277826   20.07737797559932
H        -1.37123152037779    7.10887610020162   18.01853760403131
H         1.41246099504750    5.69352925241707   12.70274748073430
H         2.91228064791657    6.44908487485454   12.13357260125866
H         2.36927808652097    6.68054826490255   13.80344654221328
H         3.56014133528297    9.49729227868954   13.27944705588479
H         2.44651995662659   10.53295183706968   14.18333747024175
H         2.63593169270448    8.84114135660580   14.63833388277183
H         1.10767307740841   11.92132191951299   12.98637185338741
H         1.81901725077350   11.80077921026612   11.37397990422768
H         0.07812309031949   12.04346159557425   11.56037718902081
H        -0.77397262083677   10.85686634157152    9.84779824362013
H        -0.25830599125776    9.44184081038990    8.92129035364079
H         0.44715043383086    5.85560826073883   10.58958174389916
H        -1.15273958526881    6.60129719530020   10.54333955843483
H         0.04877143264984    7.02613001974608    9.31792348529324
H        -1.72657258825011    9.36374672954163    9.89757612321395

