99
CSD_code = HORJAB | q = 0 | S = 0 | Stoichiometry = C51H39IrN6O2 | MND = 6
C         7.97792218798642   11.32918122634242    6.13401936227780
H         8.47824023341542   11.31723236655366    7.09276555309612
C         8.12497222854608   12.39930788149380    5.27319709772114
H         8.74969208883786   13.23415573362670    5.54763594207380
C         7.45452758955252   12.37057149326665    4.05689808006485
H         7.54920335831258   13.18710749399538    3.35705721493282
C         6.66148546472316   11.27963177018169    3.76187971584508
H         6.12643725446217   11.23389164978428    2.82732867698114
C         6.55205025118380   10.23066231507129    4.67497947222513
C         5.74630542317058    9.03509048261617    4.49771472104063
C         4.97954787385724    8.75858595196779    3.36547364749940
H         4.94636062099402    9.45538043286364    2.54067375408635
C         4.27120686403596    7.58118907479822    3.27968559330931
H         3.70733755756582    7.35605081845521    2.38639154258597
C         4.31267306444690    6.65397926759287    4.32356643027221
C         5.06440497952544    6.94902304510514    5.46118406405863
H         5.05805825559083    6.24016054260268    6.27781526125691
C         5.79145819965435    8.12375917512813    5.57603237526580
C         5.61623458244263    9.28751471751963    8.19536492938558
C         4.92693341501495   10.48994231654058    8.15533565303868
H         5.07424826316329   11.16499611553261    7.32349101557408
C         4.01424737882199   10.85235984780232    9.14612700257278
C         3.78186467071146    9.97342537089815   10.20662237716343
H         3.09773719425797   10.25400663328075   10.99398029155111
C         4.44645657150171    8.76927072284195   10.27156838727432
H         4.25845350171797    8.10787147337115   11.10476049955086
C         5.36027732291464    8.41693211734544    9.27782275586973
C         6.10788139334073    7.17156721621426    9.24878929234434
C         6.02681574258940    6.15458638179126   10.20031409356545
H         5.38000220711730    6.27124420039571   11.05461820717957
C         6.77671126477105    5.00558601390483   10.04738758018933
H         6.72498728860522    4.21352737332959   10.77920691279479
C         7.59595351310808    4.88658676161745    8.93191245976547
H         8.19337820666816    4.00396962457834    8.76859915289483
C         7.63504158533363    5.92948524003925    8.02700107429926
H         8.25608604352409    5.87235943615233    7.14339344746186
C        -1.51816922575991   -1.95990269936386    3.12378851831293
H        -2.11358335978729   -2.86112289629948    3.11523694341438
C        -0.79887993141490   -1.61585374930940    4.25947139168541
H        -0.83749469139639   -2.25047180800408    5.13342300970064
C        -0.03352321395374   -0.46928871139030    4.27572420225910
H         0.52888950676853   -0.17749272076293    5.15030084785410
C         0.01226758877715    0.35774674444958    3.14594673531928
C        -0.73085317637243    0.01435136787495    2.01142245365708
H        -0.68643524297162    0.66033183715602    1.14782103713609
C        -1.47933395234350   -1.14419083629038    2.00199992425502
H        -2.04263918328568   -1.41406460438686    1.12048486644026
C         2.26764934679391    2.92937540353948    3.95939237328468
C         3.52769244587218    2.99330159259148    4.56606338391732
H         3.97960212183442    2.07705507984373    4.91468137494316
C         4.18085217768417    4.19857470209917    4.68258128764656
H         5.16632716751222    4.23631446523551    5.12293686196023
C         3.59817686197010    5.37912744128764    4.21272636463530
C         2.33074517950031    5.31294515966369    3.62634811250935
H         1.85680328843016    6.22283756625825    3.28765150027023
C         1.67248368726097    4.11245411548295    3.49855068170644
H         0.68917234329264    4.05485948181567    3.05585356697170
C        -0.24932826718131   20.38311300861287    8.19817191596275
H        -0.76911711546310   21.32792217279720    8.13580724794161
C         1.11316395925976   20.32394711095196    7.94452761897465
H         1.65272425073761   21.22410798999497    7.68798777623259
C         1.77927254775381   19.11759331870422    8.01113789304844
H         2.83923263184980   19.05217244475926    7.81829056085108
C         1.08609770783498   17.95243423269023    8.35497920472000
C        -0.29005250818848   18.01993549194635    8.60821645229298
H        -0.81350904023843   17.10791623359242    8.85281243724946
C        -0.94704829578085   19.22889170205309    8.52517253002483
H        -2.00968519802516   19.27869177710364    8.71548042552647
C         1.99952436678180   14.60684342753987    8.94067626022920
C         3.34931441109722   14.50126490557843    8.57495385406377
H         3.86684261195671   15.39407915863841    8.25732320372947
C         3.99122752578618   13.28771433323290    8.64361585141074
H         5.03761180990870   13.21742071347444    8.38367204238927
C         3.31795770049106   12.14018165461889    9.07506373763179
C         1.97408265292624   12.25127010189950    9.44107748565565
H         1.43661334368049   11.36930098772826    9.75692174415808
C         1.32406486478008   13.46309780185139    9.38207580401717
H         0.28410213234716   13.55191621714963    9.65725127696408
C        10.99862639679004    7.34149601796835    5.12327930849424
H        10.45013376561356    6.94916803263536    4.27024302291289
H        11.57098128157151    6.53935689861741    5.58533365538244
H        11.69522002359844    8.10510800599286    4.78340651451200
C        10.02488059921707    7.93498903234287    6.12807695821492
C        10.59145289407254    8.48097462621303    7.28381203550001
H        11.66648541923317    8.42357488647311    7.37210229428968
C         9.90524932918987    9.09289885093751    8.33718170264522
C        10.76073992847612    9.58216352646899    9.49419555625991
H        11.53193009068104   10.26016867312137    9.13460871086656
H        11.24776497745814    8.73593320926706    9.97512926358322
H        10.13532116627513   10.09455622090871   10.22126783241072
Ir        7.09975079357660    8.65036269392085    7.00397848239705
N         7.22431323742240   10.27007376034107    5.85101307333582
N         1.66477411707821    1.69296238718671    3.91251000888578
N         0.69352407019278    1.55509689136245    3.10701148273569
N         6.92456776671592    7.04436132821339    8.17454124285779
N         1.28379869731818   15.78327019989711    8.94558504467739
N         1.81235193530059   16.77912448296351    8.35801027728075
O         8.80698866703074    7.86796354098146    5.83590717155248
O         8.67000937098700    9.29090273307915    8.42959196319747

