67
CSD_code = HORWUG | q = 0 | S = 0 | Stoichiometry = C30H36Zr | MND = 12
Zr        6.62230032012381   -0.37158460964088   13.99518643258152
C         7.23606728107663    1.66460666213800   12.55204425950081
C         5.90570353880602    1.33172420263547   12.22735099086445
C         5.91720892000726    0.07320959911936   11.59221699219460
C         7.25578945647566   -0.37414863756819   11.53345115945879
C         8.08139773011258    0.61300138429780   12.12633876584969
C         9.59525096153502    0.71200047347357   12.09319086336908
C        10.23204551918242   -0.60446232246946   11.62217508178851
C        10.10527017991784    1.04165870100133   13.50684009869696
C         9.99906316517682    1.78530826152605   11.08555413170393
C         9.24457292866250    1.96138698903727    9.92999649727475
C         9.60785056316196    2.89428222149418    8.97668075125554
C        10.73971467413412    3.67050712597002    9.15655457489496
C        11.50409003991492    3.49785842166756   10.29586489687953
C        11.13893009609598    2.56229505474174   11.24905628631851
C         5.13559591011091   -2.02191978830612   13.68553307985005
H         5.01536597931617   -2.64697576486699   14.58416036285254
H         4.12485177330495   -1.71839618636956   13.37397028212450
H         5.50244502421472   -2.69801013569894   12.89597284758916
H         7.57027879181695    2.63078940834091   12.90988066764032
H         5.05535470499229    1.99896868215308   12.29467569826711
H         5.07234516532738   -0.40572691409772   11.11217564294209
H         7.58794422483253   -1.26347853946157   11.01407024023927
H        11.31642763684240   -0.50967457635782   11.61920171026744
H         9.95154397197506   -1.42218107062667   12.28239412554416
H         9.91469399859437   -0.83970115179075   10.60924239572345
H        11.18105273288863    0.89355330792434   13.57793972987177
H         9.62081212926625    0.38229439642644   14.23387245951027
H         9.88373225505446    2.07657740979919   13.76205524664534
H         8.35794484827948    1.36419587468625    9.77859571122481
H         9.00396749961501    3.01557600454121    8.08901472096762
H        11.02490210391236    4.40138988555571    8.41413800459735
H        12.39346391081027    4.09320478173367   10.44614224090210
H        11.76106524845640    2.44747444610933   12.12292087203222
C         6.00852172618129    1.66452815510887   15.43845894359254
C         7.33888363562843    1.33165558314043   15.76317667918965
C         7.32738094871794    0.07313980894197   16.39831154333380
H         8.18922265411223    1.99891826472117   15.69589462326522
C         5.98879795763451   -0.37420364107829   16.45709951075436
C         5.16319266669892    0.61293187262697   15.86418585602744
H         5.67430953110771    2.63071320476917   15.08062968501678
H         5.65661981578283   -1.26346498778319   16.97658971630840
C         3.64933969466875    0.71195200615766   15.89736533430782
C         3.01254169497109   -0.60450826231920   16.36838400980304
H         1.92814515379415   -0.50988393626763   16.37088030042544
H         3.29343160305807   -1.42231301847018   15.70843981972080
H         3.32950018635152   -0.83950003920362   17.38149994643688
C         3.13935765372988    1.04159090285837   14.48369889978542
H         2.06357587073720    0.89349506600537   14.41258914955951
H         3.62381851183100    0.38221584093901   13.75667651809391
H         3.36090357467647    2.07650466654867   14.22847655289395
C         3.24551367523079    1.78523763929231   16.90502264592231
C         3.99997452739100    1.96124982520660   18.06060765322086
C         3.63675910829800    2.89418692539341   19.01390370333874
C         2.50497662540740    3.67051483022495   18.83398652967606
C         1.74062684172890    3.49793072578854   17.69465399878797
C         2.10572523509454    2.56232337391379   16.74147900865692
H         1.48365072695599    2.44760980371387   15.86755299135728
H         0.85130145072350    4.09334918776140   17.54435144688322
H         2.21978572029505    4.40136322796904   19.57643409342747
H         4.24058734041328    3.01536021892166   19.90163446441029
H         4.88654396844637    1.36396541748275   18.21205192352311
C         8.10895584829835   -2.02188478575314   14.30523036349208
H         8.22884867694156   -2.64705286941526   13.40664482865304
H         9.11985724620076   -1.71838253029882   14.61631555112050
H         7.74237053143556   -2.69789627087579   15.09499381428724
H         8.17223631346854   -0.40574980318799   16.87842207330499

