51
CSD_code = HORWOA | q = 0 | S = 0 | Stoichiometry = C22H28Zr | MND = 12
Zr        5.41573692849499    0.43536630352591    3.52794432114409
C         4.00608378455268   -0.86817574946681    5.22161712845883
C         3.08730588781934   -0.25371715600217    4.34893807663729
C         3.17553333748793    1.14103937558788    4.53341692838286
C         4.15252714491226    1.38982061232636    5.52176399928326
C         4.66110164936135    0.14608132490442    5.95013258646716
C         3.95514838002278    0.90516154898918    1.49657471892090
C         4.36471488596695   -0.43750859968946    1.36165473873023
C         5.75560158950966   -0.44510823709127    1.14081774190586
C         6.21166047163897    0.89029559664714    1.16088848799437
C         5.09542351755083    1.73712517187345    1.38038969652960
C         5.03771668584211    3.25117101362256    1.28561918114371
C         6.44655017611912    3.85216610841723    1.16321097999565
C         4.37248959404815    3.80533549487313    2.55782983820388
C         4.26641865241719    3.63484755350437    0.02692088753269
C         3.43496652734970    4.74475198344257   -0.03683693902241
C         2.78048848795231    5.07641295342119   -1.21041923660720
C         2.93919064678876    4.31622652049939   -2.35980760367483
C         3.77987813118377    3.21220188473845   -2.30000048909543
C         4.43239834445623    2.87917785577984   -1.12926275525621
C         2.20878238850080    4.66312698466101   -3.62165830570950
C         7.08367428309964    1.74156576233428    4.24579105175885
C         6.72221745388578   -1.34836445950863    3.84535319756794
H         4.36335394822189    2.34911472329327    5.98061841753052
H         4.09854756470807   -1.93298911462981    5.39678374992326
H         2.34427635145089   -0.76721464779921    3.74982949122754
H         2.49318790767892    1.87538168996887    4.12321479255658
H         5.35496733492686   -0.00633369831646    6.76720217939025
H         2.92780110620901    1.24920473163633    1.51389098201036
H         3.70956994531601   -1.29849621590891    1.29052948885882
H         6.35223973680191   -1.30962022010447    0.87959418445098
H         7.21966330281331    1.20203686676233    0.92055818659658
H         6.38113563689390    4.93729020119892    1.10754689357077
H         7.05315314412731    3.57870116776871    2.02509442954036
H         6.93433292900782    3.50006188756425    0.25784736929578
H         4.50284473144504    4.88402459525839    2.62479271875291
H         4.83510207598144    3.34780369764994    3.44107335298754
H         3.30554770271583    3.58864665447182    2.55827533249298
H         3.28547849610335    5.37180536097195    0.82828387650038
H         2.13611966176316    5.94450045163860   -1.23094133132447
H         3.92569794479440    2.60517000078164   -3.18243800682537
H         5.07710417645802    2.01317479494598   -1.10881615293499
H         2.76984191661420    4.33999970114795   -4.49560063392307
H         2.03580758999874    5.73498338360437   -3.68855631806314
H         1.23918465514765    4.16373053985811   -3.64055181501915
H         7.94838414190454    1.73634129964086    3.56278677311280
H         7.46049430653511    1.36049386433970    5.20913780844670
H         6.82980457835351    2.79924597631922    4.42261275249675
H         6.99305418270654   -1.49564567109477    4.90163729802354
H         7.66777955705288   -1.28966470006898    3.28440676682509
H         6.20321642529390   -2.26404716830543    3.51460918218272

