57
CSD_code = HORZUM | q = 0 | S = 0 | Stoichiometry = C24H23N5O4Ru | MND = 6
Ru       10.40768502927179    7.44781446113062    8.69230526694998
O        11.77610425550118    6.63689279450276    7.25521113054171
O        12.08785466860173    4.71850110957689    6.17810178359184
O         8.95668654450239   10.31346232531314    9.02480173950634
O         9.89413699795030   10.52158538688036   11.05784123313598
N        11.47651796443535    9.39982183191250    8.84821110938687
N         9.66702837880279    5.72135271308469    8.52971711443248
N         8.82073846167500    7.62227903508106    9.96091217606940
N         9.33403805357206    8.17747131394251    7.14490543258661
N        11.65194414677365    6.81930595015609   10.17457099313047
C        11.48806974238785    5.43395796514055    6.96227350549936
C        10.26383830822106    4.85891205525475    7.70361834352595
C         9.80999052811967    3.55838186759423    7.58171112592362
H        10.31750057535111    2.89071589769822    6.90403547127043
C         8.71597868295168    3.15726835240339    8.34403175124691
H         8.34042529878109    2.14836907065494    8.26879440069340
C         8.11450225030761    4.05806997830125    9.20689995273811
H         7.27267602140491    3.75847280998204    9.81085468176467
C         8.61384454082821    5.35767069333368    9.28626776350671
C         8.11943615289170    6.46334036991889   10.10079995916989
C         7.00815186731014    6.38979448052882   10.93644610158070
H         6.46901514333991    5.46068449381915   11.03371494929885
C         6.60521744425819    7.51636414427165   11.63359814340998
H         5.75115715650962    7.47333672966823   12.29276914333013
C         7.30990416813693    8.69644756925488   11.45706820188343
H         7.02923261477445    9.60477263588331   11.96538375800056
C         8.40666526553744    8.70947141539384   10.60412304336016
C         9.16753660812669   10.00682727550382   10.21415379125366
C        10.01601583536833    8.80944464413440    6.18811172326179
H        11.09658239615435    8.73679795246600    6.24138791300151
C         9.40936972905792    9.49529787693895    5.15465876743357
H        10.01767959788668    9.99353511415391    4.41542431535376
C         8.02204115496050    9.54731562904989    5.07891951648091
C         7.31616777827882   10.31582252024187    4.01231333889567
H         7.97775372302353   10.52124160191035    3.17517543662030
H         6.44418625191519    9.77208655713372    3.65605086082005
H         6.97289237554118   11.26685090793534    4.41910634907622
C         7.31967955782096    8.85561974026998    6.06102070198544
H         6.24060719791285    8.84295437173216    6.05453107692374
C         8.00349966882260    8.19372743859172    7.06015490597923
H         7.45043186099709    7.66199528301521    7.82431575143807
C        11.28146295724993    6.37526652557135   11.38066306462087
H        10.21961931462125    6.32558792713391   11.58523541521269
C        12.18026671844049    5.99661838939016   12.35656512415387
H        11.81517950563322    5.65193250816505   13.31181629417224
C        13.54922002860344    6.06335141063937   12.10823556465180
C        14.54521555160761    5.67066962801538   13.14736835287075
H        15.55818697993418    5.72893376818713   12.75919279229169
H        14.46230930704760    6.32960069294321   14.01083396662868
H        14.35544270400786    4.65428428006228   13.48877656699295
C        13.92756523659579    6.51320973129522   10.84772473975117
H        14.97076923877690    6.58041380769552   10.58006108476260
C        12.96537168016866    6.87567937874564    9.92598691713650
H        13.25123382337499    7.19512145043501    8.93049786324361
H        12.34180800372571    9.48677957203222    8.31762079072552
H        10.80169304872271   10.09666740613142    8.50685523206408
H        11.65647190342506    9.68364915979921    9.81337350666444

