89
CSD_code = HOSBAS | q = 1 | S = 0 | Stoichiometry = C44H39ClOP3Pd(1+) | MND = 4
Pd        0.11099564514162    5.25979032182693    9.09007454335614
Cl       -1.87987936327016    4.81617632296708   10.07015254843849
P         0.61540331170535    3.07579675813539    8.64693516019989
C         1.32833121596609    1.99240324997227    9.90540943011500
C         0.59921452639422    0.91406285013548   10.39875794694280
C         1.12548205549865    0.13930671748835   11.41670227013779
C         2.36521550540452    0.44502265328236   11.95531758657416
C         3.07983307251382    1.53635825049882   11.48520559823006
C         2.56186080724493    2.31655128428809   10.46833039617667
C        -0.45339995897056    2.07311572591237    7.59048527254366
C        -1.66979371584002    2.61874733383862    7.19238099432223
C        -2.49153805498893    1.90849216412559    6.33507984775255
C        -2.09644490678139    0.66228306950842    5.87659425865065
C        -0.88039422942926    0.12160398229144    6.27010284311033
C        -0.05223967264152    0.82329437957375    7.12538831987714
C         2.04903147711951    3.53063489302313    7.53483504768936
P         2.04038404426892    5.36123038668144    7.90270530794741
C         3.67935382388267    5.72857131669870    8.56463942636745
C         3.74376010161497    6.29091933644259    9.83566252204775
C         4.97493567424695    6.57932858829509   10.39597769764660
C         6.13522330501786    6.30060777871756    9.69130751836494
C         6.07053767808610    5.71936388507207    8.43315045105601
C         4.84455812710371    5.42615044015358    7.86510546695090
C         1.84761827952475    6.10414602957055    6.26302581065187
C         2.79812953605943    6.87434965529689    5.60702731326352
C         2.48880186590256    7.42684013700987    4.37509406885278
C         1.24089926601460    7.22365681560342    3.80890700486306
C         0.28531252269522    6.46628089449626    4.47175174243938
C         0.58574887896445    5.91050955670933    5.69912367612085
P        -0.31532836137526    7.44656406326177    9.47166100178465
C         1.10687788538256    8.57135093919224    9.36482167611925
C         1.59843597099815    8.87451528036838    8.09701417271292
C         2.74095914512747    9.63914010519990    7.96074297146956
C         3.40318771080490   10.10174261422389    9.08755770253650
C         2.91078881116475    9.81235864853365   10.34931345897059
C         1.76622577631854    9.04752774142204   10.49265276155151
C        -1.51581226997022    8.13550802118861    8.31069744388712
C        -2.20960518843311    7.24658094292603    7.49462042967566
C        -3.12644517669149    7.72399886990211    6.57609476137749
C        -3.34823762358451    9.08767282511031    6.46875405472409
C        -2.65078226530224    9.97561789979434    7.27387494220678
C        -1.73028845016635    9.50619547219083    8.19281423425340
C        -0.94656560863721    7.65635830878427   11.15079945837669
C        -0.36956333807132    6.80063047167219   12.10401862521461
C        -0.83021466569064    6.82469073194534   13.41090490952351
C        -1.84998438102356    7.69865686679346   13.75778902699832
C        -2.42306938410380    8.53742216647064   12.81846849539512
C        -1.97836339651689    8.51002715691753   11.50750892496469
O         0.63404769641194    5.99952778503779   11.62702208377299
C         1.10795862072757    4.96212713171804   12.47014456129275
H        -0.37215158835967    0.68794986511382    9.98135945767055
H         0.56560868069915   -0.70336942887849   11.79230009481498
H         2.77334483286935   -0.16323840530776   12.74753250121947
H         4.04047798860068    1.78019430680268   11.91369041494456
H         3.11429082653775    3.17842626292627   10.10790396562223
H        -1.97149389427980    3.58780613486406    7.58184266316134
H        -3.44029976694503    2.32244075996753    6.02934837211654
H        -2.73845730054786    0.10563423922655    5.21126117903336
H        -0.57959194910872   -0.85017111980933    5.90909575587399
H         0.89622682947679    0.40930111480426    7.43993914271516
H         1.79203459709917    3.33829456601300    6.48782967812692
H         2.99041884295340    3.02983214349936    7.77356683547989
H         2.82121747787946    6.49201657288466   10.36974925410776
H         5.03138390804407    7.01922497167598   11.37992938044139
H         7.09652960023841    6.52866378258122   10.12545730955562
H         6.97904262704528    5.49266863613871    7.89605050116554
H         4.78589408210001    4.96127902010760    6.89009007257448
H         3.76208330900996    7.05192574565892    6.06108166477947
H         3.22457428777829    8.02363082621560    3.85775013326366
H         1.00773031922411    7.66347602460008    2.85160727611422
H        -0.68989822578330    6.31957389893587    4.03330139365244
H        -0.15603477677015    5.32161824297910    6.24456078225063
H         1.06352318049870    8.52385168840682    7.22323065178640
H         3.11331182606837    9.87771761030904    6.97573102550691
H         4.29798421988889   10.69559889676275    8.98112073888739
H         3.41898803758906   10.18603062748565   11.22550707816225
H         1.37967744058433    8.82482987051826   11.47761584823280
H        -2.03313038954165    6.17562810598485    7.60423162245432
H        -3.67095258358451    7.03678657868256    5.94606303247791
H        -4.06543510931288    9.46183016296058    5.75423171834888
H        -2.82488014208824   11.03712607143400    7.18314889089604
H        -1.17059681979912   10.19426169548800    8.81186696626249
H        -0.41647059663817    6.17023268961566   14.16118968807368
H        -2.20366776356457    7.71152231594611   14.77712900486357
H        -3.22403279552693    9.20170753217782   13.10159539802802
H        -2.43799575816863    9.13687844714879   10.75761011104998
H         1.82510135022499    4.39277559378371   11.87548733635324
H         1.60905045622281    5.37177532803168   13.35267555375909
H         0.28943241326703    4.30415980390386   12.77751173854794

