58
CSD_code = HOSBAU | q = 0 | S = 0 | Stoichiometry = C26H22N6OS2Zn | MND = 5
Zn        5.23150817737941   11.26768791124024    9.37642954702770
S         1.68934310138474   10.31025992019134    7.23791735399036
S         8.73872656423963   13.96263166680459   10.52947024543662
C         3.60997006183259    7.52824322956367    8.44156586837198
H         3.44951081667671    6.99251326849980    7.52121391326232
C         1.90928938743800    6.08838201652858    9.54364736047509
N         5.85926410009438   10.28413854520972    7.55235995553767
C         2.86343852225411    7.18907176305000    9.57360032747524
N         4.65368044398511    9.30324395608399    9.61392211453724
C         5.31002807795586    8.47322419486149    6.11090229572507
H         4.81639224822061    7.52837611163538    5.95319429460248
C         5.24357218050803    9.11745552941130    7.34357791729034
C         4.16222336889499    9.94456682647740   11.82161713143742
C         3.04251369382008    7.96420886448013   10.72427836700295
H         2.46692504104154    7.75054860296867   11.60998300103276
C         2.76058755808360   11.15618113481799    8.03162602560462
N         4.72606347632612   11.10680337576149   11.48506540362312
C         3.94540492932884    9.01602848136815   10.70157153931468
C         4.48511734854303    8.60372713684679    8.49501754363308
C         1.25382388496739    3.89649609203085    8.75785497027067
H         1.50501778123670    3.03211445593692    8.16608070197595
C         0.04024321664481    3.95317912728673    9.46481242603989
C         0.70911686734349    6.14813728573900   10.25338420507606
H         0.46478967121958    7.03716847798349   10.81558392193474
N        -0.85654224688328    2.91908386136157    9.46334070739001
C        -0.20370254969402    5.12057436134601   10.20920653449705
H        -1.12103851746952    5.23282159370937   10.76183626553212
C         3.81036676450339    9.65992355253069   13.13871264667825
H         3.38024280143865    8.70601934073188   13.39923370766405
C         6.01917369363031    9.06872208438169    5.08176694115834
H         6.07672206401539    8.59239736518925    4.11428265929457
C         2.15227207036758    4.93654267800155    8.79291697051826
H         3.08017733644142    4.84058654834832    8.24796899941205
C         4.04342510551964   10.61525564589103   14.11354185340013
H         3.78289243777962   10.41790786055345   15.14284098513154
C         7.56296943112824   13.05924547045049   10.00658673466947
C         6.64946127413015   10.28091092567963    5.31247548125612
H         7.20819533703036   10.77731010254498    4.53556408720189
C         4.61804877066596   11.82207219807490   13.74746886441453
H         4.81360673365764   12.59185486245879   14.47625064983492
C         6.54086826701431   10.84902841152688    6.57294632523177
H         7.01258079167703   11.79106035807219    6.81453978624289
N         3.56780350138176   11.76730567296541    8.63389784709215
C         4.94666519319477   12.01893160533016   12.41419652313434
H         5.40784924782413   12.93520698671244   12.07454735144861
O        -0.82696746770549    0.83049059055532    6.44159723595057
H        -1.08905135955354    0.95205102904603    5.52349471913207
C        -2.16586684982388    3.10343969669936   10.04796044646648
H        -2.08771411198774    3.25344871598833   11.12759364847602
H        -2.76336176367469    2.21228793501782    9.87430772060811
H        -2.68948555164516    3.95919559793465    9.61053643338189
N         6.68807232040535   12.37623969001669    9.60676590813969
C        -0.67891373555608    1.76293659878973    8.62296348164142
H         0.36327890228987    1.43919577399250    8.63233092175166
H        -1.27065928058913    0.93701831876789    9.02354563157854
C        -1.10566622927081    2.00552212837345    7.16649140039689
H        -2.17874797726274    2.24311998416984    7.13146951531987
H        -0.55060492244695    2.86270448018504    6.75954458523237

