73
CSD_code = HOSCUP | q = 0 | S = 0 | Stoichiometry = C32H24CdCl2N4O8S2 | MND = 6
Cd       -1.07524829502761    2.83059456070039    3.14245927822030
Cl        5.52003583370270    3.65354829832847    3.96556721031821
S         0.78602217927856    0.96488190674737    3.53966503383666
O         0.06917255237611    1.20665783723814    2.28496497536266
O         0.57027569038289    2.09901629892329    4.45781154373451
O         0.70032337061749   -0.33029756783665    4.13680187543798
O         2.28005848682224   -0.50373871740471    1.45242743908443
H         2.77137683538365   -1.00691770308835    0.78792292209566
N        -0.15437343016601    3.56399600471938    0.89466569048720
N         0.47212814150917    4.58147690172543    3.27231182710949
C         2.52746925644775    1.19826904233721    3.05144938248267
C         3.06267985545372    0.42919687762203    2.02029900231414
C         4.37529221219817    0.65895636277634    1.60852464433186
H         4.80443558120653    0.06255159465662    0.81428338884570
C         5.13721887954772    1.64914276026438    2.20507658712003
H         6.15022522293691    1.83049408408382    1.88016105176023
C         4.58594943361971    2.40450662538439    3.22590907201831
C         3.28673686656295    2.17584544486940    3.65478513929366
H         2.84151217900370    2.74291913880738    4.45666793753355
C        -0.50408290841664    2.79762147955754   -0.12275194345966
H        -1.56812060914347    2.68397857061087   -0.27733947131068
C         0.42048567752474    2.15521403773324   -0.93618588377942
H         0.09053097517172    1.52142507805690   -1.74404605169045
C         1.76722626901655    2.33531209187217   -0.67394328697478
H         2.51997290021700    1.84960388762254   -1.27897944566199
C         2.14197115386880    3.14325129578229    0.38638930827555
H         3.18451511007500    3.27873724710688    0.62921313264259
C         1.14304154550356    3.73029010222028    1.15947953114513
C         0.68139700628346    5.23970334599722    4.39953623349572
H        -0.14286498036732    5.23113187637768    5.10017745561632
C         1.87201396197950    5.89428991557830    4.68035994198198
H         2.00855837183744    6.40671981077941    5.61978953538237
C         2.87646007026883    5.87863020894111    3.72483163986702
H         3.81464858600653    6.38480496938474    3.89737793151898
C         2.65806404999051    5.19436352326061    2.54236770473015
H         3.41573043804045    5.17977173563673    1.77505550624177
C         1.44256069097149    4.53402912000111    2.35781910918419
Cl       -7.67085495779945    3.65313532426633    2.32003098873685
S        -2.93663176362784    0.96477393676381    2.74498956926085
O        -2.21932153045140    1.20538197773768    3.99959292492595
O        -2.72084816923675    2.09955021997153    1.82760581776085
O        -2.85136074282026   -0.32989570683919    2.14663207678320
O        -4.43058376069462   -0.50468773402729    4.83191988537316
H        -4.92197043725132   -1.00821232987422    5.49611283315676
N        -1.99612224559399    3.56352326550484    5.38944649208780
N        -2.62196375567091    4.58187694392381    3.01222407783974
C        -4.67800620404519    1.19798238586851    3.23357179382875
C        -5.21324234583798    0.42836977298913    4.26430542612380
C        -6.52596589201303    0.65772573192589    4.67595753158287
H        -6.95514706481142    0.06086291138280    5.46983027909512
C        -7.28798352922893    1.64801997058320    4.07971020575588
H        -8.30108240691808    1.82901718004949    4.40453034331778
C        -6.73668552892702    2.40391200741924    3.05928188763126
C        -5.43738480894675    2.17562214515772    2.63048367451929
H        -4.99215309651425    2.74305972698016    1.82886229583258
C        -1.64661049297372    2.79721791343408    6.40702121937169
H        -0.58263170872114    2.68300026471414    6.56143835381738
C        -2.57144963327704    2.15555376568611    7.22078051459123
H        -2.24167522103876    1.52155686919139    8.02856113389145
C        -3.91815272686170    2.33588048682379    6.95844417477859
H        -4.67111320389807    1.85019183365933    7.56329706333477
C        -4.29263382255900    3.14363739480028    5.89783968376187
H        -5.33519573994693    3.27964515126455    5.65515745056214
C        -3.29348594795127    3.73028224907172    5.12468190611426
C        -2.83086074925009    5.24024996218625    1.88499203941685
H        -2.00657421608240    5.23114030251154    1.18433294365376
C        -4.02141021200481    5.89480457873769    1.60390065530654
H        -4.15784613951851    6.40706978766663    0.66431989997096
C        -5.02612509939830    5.87912401516891    2.55912478022230
H        -5.96415322067735    6.38564466230405    2.38657133745978
C        -4.80817269176125    5.19454680076670    3.74150278050292
H        -5.56584849708732    5.18041185019840    4.50884900603767
C        -3.59275159723058    4.53414633449479    3.92629200495284

