77
CSD_code = HOSGIG | q = 0 | S = 0 | Stoichiometry = C28H37B10PRu | MND = 9
Ru       10.36502859952783   15.74980021525858   16.09947794895788
P        10.18943948763862   17.74172580054370   14.98983353050842
C         9.50364310506050   13.19097710388155   18.12578219984549
C         9.14611804645361   14.46154614040048   19.00077359825433
H         9.97356216058097   15.03413446700820   19.39973889191724
C        10.99052152630645   12.92054160301924   17.81743989385617
C        11.18309978780740   11.53042580109710   17.18560573039070
H        12.20609272104740   11.42961398076474   16.82376648958906
H        10.50356624437736   11.36660293157720   16.35511696957251
H        11.00562632394971   10.75229864432211   17.92432450085584
C        11.89710310483873   12.95561257194267   19.06159138202642
H        12.93931435908246   12.88471634631399   18.75008226461036
H        11.68629676058228   12.10930565455317   19.71099936362672
H        11.78143987656438   13.86668595949227   19.64453328749348
C        11.46339467368266   13.97830711152725   16.83006232004616
C        11.34463317080937   13.90333642250738   15.40768569613572
H        10.93176752354935   13.07651107848322   14.84721540058394
C        12.02371561944002   15.00199361509662   14.84189523006950
H        12.23199363740223   15.14225674382707   13.78884022076705
C        12.57836736109683   15.76815754988873   15.90516708983396
H        13.27317118668872   16.59239072293131   15.79296674946823
C        12.24355819875642   15.13604166632837   17.12236633152905
H        12.64250630035970   15.41394949153422   18.08964272845694
C        10.90562782060604   17.65634732338485   13.31645340293877
C        12.17534335189359   18.13792539385709   13.01744193765172
H        12.74018728804458   18.67374381972839   13.76899528951197
C        12.71557052549179   17.93491249403447   11.75913729033849
H        13.70133138561326   18.31461262218649   11.53073915500044
C        11.99867458279889   17.24415005147170   10.79645790161064
H        12.42372232867192   17.08769701131570    9.81581265541510
C        10.73889282839088   16.74608334118427   11.09547534833566
H        10.18331187114983   16.19855905721939   10.34802297025779
C        10.19766380487389   16.94331737161148   12.35104258774994
H         9.22453026779488   16.54459616240156   12.60701690079937
C        10.99573480856077   19.25147790535504   15.65519148319426
C        11.00287077985872   20.44463023227332   14.93753341782880
H        10.52660637207542   20.49379185154613   13.96969970907110
C        11.62247560587752   21.56525160776737   15.45764218669439
H        11.62494809567014   22.48721390364794   14.89430609396893
C        12.24073857807866   21.50973409522934   16.69715944056712
H        12.72528904978788   22.38730146600649   17.09937471165836
C        12.23291059430085   20.32826126140032   17.41832977380426
H        12.71027708974598   20.28229124903900   18.38668720296388
C        11.61125729767775   19.20622585570256   16.89878220656148
H        11.58920512904463   18.28119062131076   17.45953778291414
C         8.51653935247874   18.39385056662973   14.65304769204422
C         7.53285946530031   18.09308814534048   15.58950233919422
H         7.79354422600330   17.45325292787840   16.42433372878788
C         6.24673863198274   18.57372325778778   15.42423547801062
H         5.48683512512500   18.33107624601390   16.15127883110232
C         5.93415783679877   19.35452020439249   14.32272609612111
H         4.92978897165566   19.72885001428449   14.18964493333068
C         6.90813550535469   19.64451149454081   13.38171876896597
H         6.66275713959182   20.24087711483830   12.51461649151714
C         8.19732224439545   19.16784006775559   13.54240122339154
H         8.94215721766073   19.37987051901484   12.78761635989953
B         8.84818325195217   14.63950280644970   17.31239214291852
B         8.30069911542410   13.00014252915150   16.92817737238730
H         8.59114742887727   12.52650534383445   15.89143348734738
B         8.31651298904065   11.96494098100162   18.36875285683583
H         8.64255081609147   10.84025960045714   18.27276452037696
B         8.87572654602536   12.92007455770347   19.72010169155678
H         9.62356098015134   12.56489416920482   20.55103458407132
B         7.71672119049963   15.26129335217169   18.53320463058974
H         7.65989796350869   16.42424806666995   18.69088715426935
B         7.11254029253994   14.30402080824352   17.17467305185215
H         6.49484527368000   14.76603802041639   16.28891818250887
B         6.78702543908331   12.66171257173523   17.79992868205071
H         5.95327976340595   11.97990372014984   17.32739079141030
B         7.15523911116180   12.62618385210875   19.54614321718432
H         6.58504161759363   11.93613201602439   20.30891463792560
B         7.75192207955924   14.24402457441668   19.97466908408520
H         7.73982572825378   14.75898682254084   21.03189101313450
B         6.42348128953299   14.07960920391664   18.81237561351577
H         5.32744906090159   14.41639188488933   19.07180454805582
H         9.13608063117099   15.50431412810753   15.22388650984512
H         9.95530448359814   16.65591411237878   17.25978701849029

