38
CSD_code = HOSGUR | q = -1 | S = 0 | Stoichiometry = C9H15B9MoNO2S(1-) | MND = 9
Mo        5.77363636720587    0.69173278866165    3.74244770822788
S         7.38082613079679    2.85716123288729    3.39825884860327
N         5.14783732890896    2.20404887770156    2.35615203493541
C         6.07626817132748    3.18747333677299    2.35686010353759
C         5.94327222507540    4.33338000475835    1.56501862088159
H         6.71380231672953    5.08790919619249    1.60825045097218
C         4.83369467295234    4.45841099189460    0.75983044910895
H         4.70102988471923    5.33021541434797    0.13477562912213
C         3.87790572468749    3.43758772205947    0.76588959414832
H         2.99383068640103    3.50364736180656    0.15093652585600
C         4.07453817894648    2.34165805707439    1.57777335277659
H         3.35101832412523    1.53775314864594    1.62499418124663
C         5.79040530951660    1.35949580889498    5.54844808205759
O         5.76043784857717    1.78560549441084    6.63625634185354
C         4.09705294023768    1.22740346321425    4.50580900045506
O         3.10141020816308    1.61604475251227    4.98652139781776
C         6.56359401106427   -0.35781490736622    1.87755399273677
H         6.68807640003468    0.42398135922510    1.11365024359621
C         7.64828834417092   -0.45251428773450    2.98753458675744
H         8.43475038879906    0.30762002029918    2.98177517652919
B         5.10454677166235   -1.00216822428026    2.35777805663928
H         4.09799224378564   -0.68239149700801    1.80417215795902
B         6.17444439725407   -1.93106141446565    1.26014233767261
H         5.86207003802076   -2.00766666815760    0.12039110977023
B         7.82757758865246   -1.52857286226824    1.65903055982179
H         8.66092652649371   -1.26283545044456    0.86206549650328
B         7.06761969489038   -1.13101889229616    4.38804032325648
H         7.62130776998261   -0.90451721701565    5.41811293431160
B         5.37626669404068   -1.56129433235822    4.03743932265083
H         4.52965338211510   -1.80402975171022    4.83881807901437
B         5.44673396781341   -2.73152787822374    2.64166375163498
H         4.60268384965819   -3.55057345600308    2.50922291548743
B         7.15012233974742   -3.05870160658327    2.20897226723737
H         7.52338323831943   -4.09277021215419    1.77464290520951
B         8.13741339416939   -2.06748007941006    3.29766953870804
H         9.25515736753170   -2.25409006999320    3.63503020409919
B         6.67337355338822   -2.82001058479390    3.91570499935872
H         6.71245172003577   -3.70378963909368    4.70116671944519

