28
CSD_code = HOSHII | q = 0 | S = 0 | Stoichiometry = C12H11AuCl3N | MND = 4
Au        9.11607053408837    0.81012516570975    3.19021587362605
Cl        9.47579145740806   -1.21574396783909    2.35443262259131
Cl       11.29599112731977    0.97666967299386    3.84884567667036
Cl        6.88062650866245    0.66998708103356    2.71460288270784
N         8.79484177984716    2.67289997895134    4.01205535423197
C         8.93433501848354    2.79647445638836    5.33063664679564
H         9.21736322028647    1.90621202793393    5.87051670040514
C         8.74540446830800    3.99723343712963    5.98147987512700
H         8.86921726381913    4.05507636103241    7.05013821435232
C         8.40151853892251    5.11079085955940    5.22729959324867
H         8.24697385970402    6.06947418921883    5.69853882213491
C         8.26705955671360    4.97021709842236    3.86005886965367
H         8.00626857850568    5.81462276021237    3.24135798571424
C         8.46949605840906    3.72870273782458    3.26079210214850
C         8.32595206149784    3.54907315673387    1.78563447845875
H         8.18915796733002    4.52440988101591    1.31234979773684
H         7.42784653836768    2.95020419379621    1.60444840305788
C         9.51787976268620    2.84214955600615    1.18079455605650
C        10.80605896539508    3.28974320068920    1.45745919391682
H        10.94880512341082    4.13840328030632    2.11260753008363
C        11.90185731160605    2.64488338201528    0.91484331137495
H        12.89671930179800    2.98958222251937    1.15239837306672
C        11.72374119139690    1.55271152583595    0.08206788356992
H        12.58095122929517    1.04204439821572   -0.32943856180716
C        10.44615285732412    1.11459570221978   -0.21795178990907
H        10.30081977864543    0.26492489157981   -0.86735431099037
C         9.34545506194127    1.75432643483889    0.32867241040910
H         8.34894487883096    1.41500631565404    0.08529750557130

