37
CSD_code = HOSJUW | q = -1 | S = 0 | Stoichiometry = C11H15ClNO6RuS2(1-) | MND = 6
Ru        8.52911873202206    9.18988419757095    9.36412955166898
Cl        7.14279024775650    8.72075582461480   11.19658707664311
S         9.83909966677944    9.63604257867293    7.61280251411451
S         6.64029451654524    9.30278120330553    8.18369303042443
O         8.71738457594818   11.24380728484112    9.92752970223882
O        10.06630173272788   12.52448049218195   11.13690218410374
O         9.01195650987282    7.12422716707948    9.09567742171137
O        10.55636689696017    5.67333817566331    9.75340645720713
O         6.68836860174764    9.59931227417388    6.74245412902602
O        11.27228549099412    9.67943112300408    7.88109487276345
N        10.06372831358021    9.07524261242780   10.47385739733306
C        10.04042251060224    6.78172316003742    9.76637565799374
C        10.67153155986946    7.90061556865932   10.60680303352351
C        11.79836170166871    7.78360525805209   11.40618185732657
H        12.27480618830856    6.81978475988393   11.49684709392454
C        12.27453571569469    8.91415337106433   12.05636877575180
H        13.14875415971570    8.84907820510333   12.68905111036871
C        11.63035340327234   10.13133057080386   11.88001216173283
H        11.97266902324044   11.04080636601754   12.34888058358167
C        10.50840951053270   10.17877793107871   11.06670893059609
C         9.70771050030944   11.43770081743456   10.70638269869845
C         9.60802845648552    8.49953458281014    6.21023828509944
H        10.32112520278700    8.74527586813513    5.43212317234323
H         8.58166779606985    8.61032856439835    5.87969449725548
H         9.78212628913034    7.49825996778651    6.59151654762342
C         9.42531163102761   11.18715005152267    6.75547971672524
H         9.47918373378442   11.97582221944818    7.49919661559801
H         8.41325223786917   11.08130876315764    6.38185682866787
H        10.14251164413845   11.35649721889378    5.96096740643633
C         5.45849510934489   10.48358619114665    8.90204313282933
H         5.93908666759188   11.45647997953493    8.87341148846039
H         5.30808237411574   10.17652402527906    9.93187571608900
H         4.53930718660808   10.48355662773007    8.32747918456746
C         5.61497293967077    7.81077085402839    8.35800569891220
H         4.67710021692865    7.94183805250749    7.83055745643250
H         5.47749243062994    7.65967527977235    9.42372061712414
H         6.18890652566487    6.99051281218209    7.93878739510211

