47
CSD_code = HOSKUX | q = 1 | S = 0 | Stoichiometry = C17H22CoN4O2S(1+) | MND = 6
Co        1.30566703784222    6.47362866010754    8.09068833802141
S         3.29093619788633    6.88339547977944    7.11763129994162
O         1.73272936109807    4.69423306031324    8.34693695057838
O         2.07927583462979    2.78694395550797    7.27088651432665
N         0.81363148755024    5.84687152033263    6.26678075700834
N         0.75078458038299    8.39644676143611    7.90666571581597
N        -0.54477157119515    6.25611813273721    8.89839652965245
N         1.91725126125445    6.97479392040302    9.78182584706252
C         1.92043792972661    3.97975929927755    7.29178562674225
C         1.88081051237550    4.84875363750703    6.00618021274095
C         3.22719690680551    5.57071561147040    5.82545949256393
C         3.31036795413013    6.24010574830185    4.45423304898112
C         4.39729479470721    4.61425928143592    6.01815416198337
C        -0.70038505409237    8.53223967947710    8.12536031725587
C        -1.24634893148434    7.39094771654032    8.94344087710659
C        -2.43320314710903    7.48741660957278    9.65458009432769
C        -2.90210788830766    6.37148833188492   10.33032651124485
C        -2.16717772602800    5.19658003677366   10.27362328702607
C        -0.98803910509991    5.18532486909366    9.55003330892178
C         1.56872578669450    9.15633652128193    8.86806432249460
C         1.92002784097215    8.28784587215272   10.03806290004810
C         2.29021495709987    8.79258587157251   11.27426562902966
C         2.68663332197332    7.91324667497095   12.26899655903961
C         2.69675320131745    6.55583221873886   11.98736225730619
C         2.30041299471838    6.12627679678225   10.73385462231876
H         1.65971510959443    4.22754833498046    5.12973460827447
H         4.23893150153141    6.80009846844780    4.37862282409596
H         3.29993820535054    5.48616776334844    3.66972609225507
H         2.49081159250923    6.93756604748834    4.28472809568364
H         5.33387245524901    5.13361474874160    5.82979681156510
H         4.41891125119352    4.22404893148950    7.03289739391836
H         4.31418307478922    3.77413260670681    5.33181586503563
H        -0.08788234529941    5.36690586007116    6.21793557413392
H         0.82635339275330    6.53456991360432    5.50987733437085
H         0.97128500076895    8.76966118766645    6.98484633144357
H        -1.21048666797033    8.51479991462545    7.15572564644885
H        -0.94202482104080    9.48739215688703    8.60489340863344
H        -2.97991937865867    8.41683525282775    9.67260363873556
H        -3.82333385056455    6.41986673742941   10.88927835350333
H        -2.49847654128990    4.30546820554255   10.78045676428090
H        -0.37085303649065    4.30035489547167    9.47817987624582
H         1.07217211138550   10.07890145512756    9.18774317809751
H         2.51023529661147    9.42259351060764    8.37485681068806
H         2.28048102579652    9.85747386708596   11.44398209286900
H         2.98841410993154    8.28096901620923   13.23688280706645
H         3.01103176272398    5.83545630918704   12.72449716729263
H         2.29992221327614    5.07852854900327   10.46932414382347

