59
CSD_code = HOSNIN | q = 0 | S = 0 | Stoichiometry = C20H28Br2CdN4O4 | MND = 6
Cd        7.65063886189733    4.21769386464147    6.66216263317022
Br        8.50288473095677    5.81861699605995    8.44489026737957
C         7.78859160050002    7.29756413498792    5.25733393612475
H         7.77533008373424    7.51908507345991    6.31660465954665
C         7.93201547511917    5.71478226298709    3.62595922433855
H         8.01298199618282    4.66474932490827    3.37532610388529
C         7.72618037576513    8.31904211656175    4.32694189499842
H         7.65985696815415    9.35018353366417    4.63669020532153
C         7.74871582667128    8.00629431554196    2.97119679401258
C         7.86861239381640    6.66478380882983    2.62232007857819
H         7.92975244086470    6.35890310395653    1.58943789978812
C         6.90659854346312    8.82465543674707    0.77787314102146
H         6.39634578140610    7.87872401268065    0.71571317051453
C         7.68327344759219    9.10865316661519    1.95707098760690
C         5.34888966102450    8.54414705085949   -1.67903820492314
H         5.99114008137440    7.71487551326400   -1.99120602049207
H         4.67293841865700    8.78896307965077   -2.49581832830924
H         4.75771877013931    8.22229015675065   -0.82173345763864
C         6.25232231229505   10.72487990246480   -2.34829654187076
H         6.84703588786882   11.55406592163381   -1.97247146697106
H         5.26644540559845   11.10154302111346   -2.63285404957756
H         6.73923332408901   10.32215115774546   -3.24207256684612
C         6.82401944285734    9.76670217389909   -0.19698230808182
H         7.38268956814964   10.68011883709848   -0.03254274015706
N         7.88209056243768    6.01452140226273    4.92011634029885
N         6.12463926849465    9.71062694734683   -1.33522693551840
O         8.25661491301429   10.16954074313845    2.16988031861089
O         9.89847447126848    3.08807561388595    5.80706452466929
H         9.46899066057395    2.51059423067005    5.15907166820118
H        10.75280776092576    3.34072447452400    5.44726505005490
Br        6.80121416932551    2.61678420559875    4.87752879166564
C         7.51041251724424    1.13835225310072    8.06618384561101
H         7.52189742025976    0.91628011806512    7.00700525838011
C         7.36942228369718    2.72201575312022    9.69693794035823
H         7.28921103509834    3.77219488263678    9.94718142600917
C         7.57359755408111    0.11735193901439    8.99701792674669
H         7.63900190228449   -0.91396918973167    8.68769007770299
C         7.55294019689886    0.43079720709232   10.35265157838420
C         7.43393117309763    1.77250746731262   10.70099191213625
H         7.37437794273209    2.07897019354180   11.73379285627090
C         8.39651755114985   -0.38736438880393   12.54573235601010
H         8.90730834843631    0.55830040055023   12.60757781115171
C         7.61896056365082   -0.67124249822276   11.36709053072270
C         9.95596104824234   -0.10828022533052   15.00203215755304
H         9.31435401215573    0.72159589076622   15.31391644971669
H        10.63151197201025   -0.35353369137812   15.81900345833087
H        10.54758528586614    0.21293791955721   14.14479343650915
C         9.05140379436547   -2.28863273041278   15.67114461823740
H         8.45638482313091   -3.11753230429104   15.29517135741422
H        10.03719042129557   -2.66568339049559   15.95547035413913
H         8.56471726638392   -1.88597811617497   16.56507480342515
C         8.47920545728349   -1.32954036306224   13.52047073603396
H         7.91990425723868   -2.24260899765958   13.35620899550144
N         7.41766875650998    2.42160671764270    8.40288712190659
N         9.17930067559259   -1.27417799380992   14.65828417740477
O         7.04514475088138   -1.73200433069427   11.15485977735755
O         5.40264122989795    5.34384175232725    7.52156615275358
H         5.83086725231883    5.92202067036250    8.16972294956258
H         4.54853730399439    5.08943947145985    7.88083486528561

