45
CSD_code = HOSPIP | q = 0 | S = 0 | Stoichiometry = C14H14F2N2NiO10S2 | MND = 6
Ni        0.72217599585947    2.20357258277387    4.33854458398259
S        -1.60180474462298    1.91652911338815    2.35930949510018
C         0.73320047682019    2.00764070864268    1.51082983103664
C        -0.12206424236437    1.87632815959692    0.29500739549094
C         0.32678547164091    1.82086287346819   -1.01368324474383
H         1.37743023654336    1.87177515796376   -1.25021311178219
C        -0.63813992795405    1.69738018270538   -2.00209855052791
C        -1.99617954550243    1.62954710908017   -1.72366944041785
H        -2.69765747977331    1.53330318765525   -2.53711824449463
C        -2.42748514047771    1.68674196185559   -0.40454293306572
H        -3.47527768302846    1.63654950459683   -0.15726640255201
C        -1.47528992583201    1.81008373684881    0.58195123986698
F        -0.24670603898235    1.64052598980899   -3.28415772838159
N         0.01541518171429    2.03973468545407    2.63356657726951
O         1.96097635224636    2.07644046589286    1.45909119024367
O        -2.13073615966183    0.70189996102734    2.92605765671676
O        -2.28916027843032    3.11416404863083    2.77154242759321
O        -0.55782002541312    0.52111113185439    5.11708475911214
H        -1.24527122770770    0.35430505058928    4.44871986064466
H        -0.97646819800023    0.91019283598976    5.90107848394467
O        -0.75447515842403    3.79815261641578    4.88362852889241
H        -1.45805989539895    3.77976577851598    4.21103069299579
H        -1.11984591925884    3.47420949249386    5.72272887647335
S         3.04610974818023    2.49051980481368    6.31798994755867
C         0.71098817574378    2.39955291692869    7.16615892981927
C         1.56608669815136    2.53068514011368    8.38209995528877
C         1.11702615329833    2.58604053232552    9.69072150126995
H         0.06633589998070    2.53519605576627    9.92706750712299
C         2.08180267636048    2.70932371914104   10.67930509597469
C         3.43989117872193    2.77706102994688   10.40109085228608
H         4.14124844277923    2.87313234263173   11.21466444877055
C         3.87140339139906    2.71998269749531    9.08202465836197
H         4.91924332891576    2.77009572640548    8.83493458340115
C         2.91935906307180    2.59685039624463    8.09535570680729
F         1.69017068678286    2.76606419468985   11.96130956213953
N         1.42891323964341    2.36746232622232    6.04351956648222
O        -0.51680788975227    2.33083223535445    7.21772952227923
O         3.57519865453227    3.70511982378305    5.75133405267898
O         3.73342143643330    1.29285345991411    5.90577531327127
O         2.00245037433012    3.88586335414191    3.56001968743100
H         2.68993398153538    4.05263776820454    4.22837691665082
H         2.42102122870290    3.49687174848556    2.77592963971542
O         2.19904197736559    0.60922499963339    3.79329167660214
H         2.90256464111526    0.62751573163209    4.46595652831490
H         2.56445478871659    0.93319766087716    2.95422240437490

