69
CSD_code = HOSTIS | q = 0 | S = 0 | Stoichiometry = C26H34N4NiO2S2 | MND = 6
Ni        1.99414774435229   11.66829982388099    4.92913495438148
S         1.88688367001029   13.39537163754041    9.03161547086390
S         5.50242316771854    9.83914483683038    6.99327486287950
N         2.06391687284130   10.63340645263994    3.08283092927986
N         0.38009605754450   12.74341808331272    4.07702124405703
N         2.17682323110010   12.81682838866414    6.35261422524212
N         3.11545700086132   10.48380196435879    5.77707777159223
O         3.87982092554686   12.71802310499859    3.81460034862740
O         0.06486999054437   10.62266398624184    5.96646299524772
C         4.38926130721606   11.58514688771618    3.12354122336696
C         3.21745092755710   11.06613968951763    2.27468104083808
C        -0.90785882429321   12.31322991366101    4.64913934916317
C        -0.78049364151528   11.76012626198611    6.07764066396465
C         2.15634922353833    9.19088004001002    3.33093284267460
C         0.56471182332130   14.17852239288538    4.31666281038634
C         0.77249758206125   10.95665047756718    2.42499771626973
C         0.71391484235309   10.53257972908474    0.94713372239470
C        -0.58158544547092   10.98132776336715    0.28209649966897
C        -0.69027565515822   12.49683059096778    0.36789336202713
C        -0.77074616786310   12.91248489683204    1.83171525657930
C         0.46623241577655   12.45328344166953    2.62316242492102
C         2.07418153406381   12.98432240291998    7.51815625225558
C         5.54415657945387   11.93966143944429    2.21500791020809
C         5.62843126969610   13.20291202938328    1.64617018437261
C         6.67283439137108   13.51738231092818    0.79497194562923
C         7.63690550963603   12.56863078289858    0.50085367305007
C         7.55697332713793   11.30617270447187    1.06499754661096
C         6.51579617630533   10.99271790607830    1.91997379317197
C         4.14132513986614   10.28908770372808    6.33116844692436
C        -2.15344723873981   11.40293183206663    6.59923510147365
C        -2.70210761438550   10.15588989376205    6.33358308909261
C        -3.96835013783877    9.83798075790446    6.79135461764548
C        -4.69797743531944   10.76728911817894    7.51261682404429
C        -4.15547354325870   12.01332553203565    7.77987635508281
C        -2.88757285483970   12.33012465674987    7.32651395152848
H         4.48894277668692   12.95750044303309    4.52369802504658
H         0.35768380488093   10.35805992967863    6.84702293535751
H         4.70814438108160   10.81077430156782    3.83233935114355
H         3.57239252562664   10.25049510672638    1.63405081260459
H         2.93104096796975   11.90827490723030    1.64265896464167
H        -1.31641841777822   11.48944738444458    4.06168467840224
H        -1.62992985869619   13.13806582020779    4.64753173844142
H        -0.32857337673203   12.51593273328032    6.73187366733477
H         3.10269333499777    8.96455289792434    3.81690036215531
H         2.09697284975208    8.61534491487077    2.39970739384477
H         1.35470785127980    8.88493147755485    4.00140137152095
H         1.55378909206586   14.48013756815866    3.97527657890571
H         0.50330893169711   14.38092740619919    5.38352150703206
H        -0.19907378996162   14.77588654005007    3.80503279519997
H         0.01253564057454   10.38033557439788    2.96355446832170
H         1.54294703445221   10.96684949314115    0.38772092695707
H         0.79838597134734    9.44664493881647    0.87916828450933
H        -1.44026078335095   10.52231691008064    0.77708527147466
H        -0.58421532901115   10.65801798654837   -0.76015682241892
H         0.17879734963271   12.95555302095030   -0.10888050230317
H        -1.58180889821866   12.84460727591042   -0.15653618514810
H        -1.67967539658396   12.48012446830240    2.25096049026408
H        -0.85800104766588   13.99846372694502    1.89534451667873
H         1.32415123881587   13.02697566895666    2.25627723300601
H         4.87656807415335   13.94037220986479    1.88678457823150
H         6.73430997097723   14.50457122763932    0.36116114448934
H         8.45253332286278   12.81346104812635   -0.16301370146109
H         8.31103696144706   10.56590783561703    0.84298356762706
H         6.45866584736307   10.01184087976880    2.36952482342782
H        -2.12290678594935    9.43293272188295    5.77774172630775
H        -4.38564220091860    8.86331491317824    6.58539617792676
H        -5.68602004186175   10.51966145287401    7.87090469122980
H        -4.71914038740647   12.73787810222053    8.34836474022509
H        -2.45881376469006   13.29764967955704    7.54440498349290

