69
CSD_code = HOSXOD | q = 0 | S = 0 | Stoichiometry = C30H26CdN4O8 | MND = 6
Cd        1.94532578372496    3.83064014471671   11.05331044485161
O         1.90173128866130    2.59200228171568    9.37586450440850
O         0.79174762433149   -0.74177302553036    6.33630474348338
O         1.13894818063749    5.54445086425469   12.36769441213100
O        -2.71802551765088    8.56350532236310   16.36308132304748
H        -3.52081613198038    8.14427725569596   16.69706088264056
N        -0.20456595224004    3.77967519373438   10.83981193631154
N        -0.80723860450281    4.56014049254227   11.77464058635795
H        -1.81425923851102    4.46841037557546   11.91155798868202
C         0.96164024384605    1.90379961553306    8.86485281786992
C         1.27534014286906    0.92698347668733    7.88335766505908
H         2.31328897748222    0.79914665714177    7.61755545854407
C         0.32848124040465    0.14792824499217    7.26109197522850
C        -1.03106413665298    0.29916837632931    7.59533958368558
H        -1.79442327406402   -0.29846674859519    7.12412519934445
C        -1.37791377996308    1.22421537453202    8.54041394742647
H        -2.42296761078174    1.33895764901709    8.79884396347922
C        -0.43863596668656    2.04220249866796    9.19603970500853
C        -0.12937608904318   -1.57205632517724    5.67402885361590
H         0.46262444888608   -2.19091826089099    5.00078968187128
H        -0.84955150703005   -0.99148002436375    5.08783684261267
H        -0.66870651401918   -2.21812728309259    6.37459057834461
C        -0.92436462787088    2.94439061739850   10.17033210943964
H        -2.00871005968188    2.91755772639913   10.36293415563490
C        -0.07121763838546    5.40544705124042   12.53488982826144
C        -0.81985563308939    6.19005787222911   13.54483756697874
C        -0.28473246400372    7.41767356667648   13.94036897561385
H         0.64268966399338    7.73767344408314   13.49169058333940
C        -0.92384928953693    8.20271231081732   14.87297192385988
H        -0.52165143605269    9.15544549873797   15.17735783410640
C        -2.11553077630211    7.76575600393113   15.45008325908488
C        -2.64232244403855    6.53145400055582   15.08134879624140
H        -3.55540066401763    6.17933920624947   15.54339331467042
C        -2.00183057169691    5.75228964077830   14.13743859746605
H        -2.41782287161219    4.78427914496553   13.89946899264971
O         1.98907043794051    2.59210993246012   12.73082585980648
O         3.09915154737637   -0.74214922627491   15.76982152199628
O         2.75157681183686    5.54446072468511    9.73889575601623
O         6.60814215545642    8.56300554482718    5.74263602994049
H         7.41086273749214    8.14372422190221    5.40857918271292
N         4.09523678178775    3.77943978507548   11.26642299427877
N         4.69788236236651    4.56004951203116   10.33167840579625
H         5.70486802200609    4.46817497064862   10.19453816106641
C         2.92927329568403    1.90423641492375   13.24213365435044
C         2.61551976521784    0.92680924975585   14.22301068518366
H         1.57756539385798    0.79891246802542   14.48882639766770
C         3.56236076706160    0.14747352244801   14.84493126825052
C         4.92190628185070    0.29878826890599   14.51069153725392
H         5.68528218616798   -0.29892553377419   14.98178312244069
C         5.26870854583330    1.22391420813431   13.56567030035297
H         6.31372286750732    1.33853468287185   13.30705832446914
C         4.32941845477162    2.04203655044033   12.91023569349208
C         4.02030608918169   -1.57247569839424   16.43200180227802
H         3.42834062074247   -2.19131599706354   17.10529082430959
H         4.74060575345664   -0.99198560031647   17.01812516069286
H         4.55949537814682   -2.21856233830687   15.73134386083618
C         4.81499512626805    2.94381298436335   11.93548561839928
H         5.89947575898945    2.91747459137884   11.74331360844572
C         3.96180854267697    5.40551138955344    9.57163640186422
C         4.71028184278204    6.18986276329688    8.56137845359806
C         4.17511114451122    7.41742725761275    8.16578718688990
H         3.24785581539784    7.73752769146099    8.61465038778598
C         4.81414224894187    8.20238496062705    7.23302746150968
H         4.41195639791087    9.15512976409471    6.92865715129506
C         6.00579797478977    7.76538693577617    6.65584898637691
C         6.53258877495287    6.53108608971588    7.02459459346049
H         7.44555864195090    6.17887593629734    6.56239549629160
C         5.89215356499357    5.75199059947150    7.96862758161978
H         6.30819311444249    4.78401513335244    8.20668749789926

