53
CSD_code = HOSXIY | q = 0 | S = 0 | Stoichiometry = C22H24N2O2PtS2 | MND = 4
Pt       12.67249846501434    7.88184282630386   12.68156973054932
O        10.99859483196617    4.15117016349243   13.45297843315220
C        11.01979035667111    5.49044061789614   13.33991835622501
N        12.03502307209033    5.98145971808627   12.71306817770193
C        12.86852225744213    4.86695853873383   12.23259558846549
C        12.24692251301879    3.66628412847546   12.97794452799330
H        12.06552725601179    2.80783297881185   12.33008397477716
H        12.84556390903753    3.35004739531135   13.84048708198255
C        14.32771522403639    5.11918547194618   12.59661154996933
H        14.67434823754334    6.00917072213755   12.06837441854326
H        14.94188097796451    4.27290628315554   12.29922108054691
H        14.43026205068065    5.27455875868874   13.67019481620509
C        12.69437404436337    4.68390447167311   10.72333585712855
H        13.03500103948769    5.56744302314640   10.19215760532897
H        11.64550641015711    4.51806658346992   10.48486694571521
H        13.27480528964449    3.82591191667590   10.39306766434144
S        11.53871621138062    8.29251629797634   14.72899181815550
C        10.04098067115968    7.45098117745765   14.54703650607123
C         9.90120400047651    6.19182027237967   13.93464363608895
C         8.65840908636752    5.55113700305753   13.94714067969019
H         8.57653307661234    4.58291697969401   13.47697856767118
C         7.56058236654430    6.14244567039758   14.52951007740248
H         6.60400036969592    5.64321893340668   14.51830931672342
C         7.69642681770052    7.38591730085604   15.14052820488949
H         6.84163135745820    7.85443709424871   15.60585870429580
C         8.91589660678780    8.02001895408182   15.15691782123023
H         9.03328896923058    8.97865666387246   15.63908888651200
O        13.70332280596267   11.82742104401670   12.06041512928263
C        13.08629944839193   10.65103665322506   11.89463977365453
N        13.42624612843847    9.71935722341291   12.70965148458023
C        14.52318930987295   10.18847582418128   13.55483834099964
C        14.62954208741957   11.67429347654092   13.13164132206901
H        14.34382571917418   12.35669708683894   13.93757963315600
H        15.62456212989056   11.94156974842803   12.76698388594060
C        15.76460344911222    9.37285672686063   13.18384106502808
H        15.54811909207900    8.31539045613743   13.34525727693496
H        16.61059940708763    9.66266173270545   13.80162429327308
H        16.01768230379916    9.51518721471954   12.13488344781936
C        14.21578529444048   10.04048862723357   15.04102862734871
H        14.10751853282992    8.98866011679339   15.29546678733447
H        13.28687178597716   10.54466022616653   15.29466706288541
H        15.02779789933825   10.46625180953375   15.62551245372103
S        13.27354557459852    7.98287192904329   10.35356579096773
C        12.19968172156973    9.31193696288847   10.01425235701765
C        12.17895832314770   10.50169388343939   10.77093882457516
C        11.36750847933876   11.56407932634859   10.38121107287127
H        11.37563172730370   12.46521828686189   10.97584799180727
C        10.56288919879645   11.46078435058778    9.26528006049687
H         9.92581062250133   12.28290909607775    8.97753433295222
C        10.58870251824578   10.29577988671356    8.50789418710890
H         9.96970162324447   10.21253772106054    7.62653875743170
C        11.40266972832223    9.24406913631104    8.86998166976283
H        11.43622962051428    8.34236150846371    8.27714434357306

