89
CSD_code = HOSYEU | q = 0 | S = 0 | Stoichiometry = C34H40Cl2N4NiO8 | MND = 6
Ni       -0.00000368185413    5.17842621244008   -0.00000370401601
Cl       -4.85760361029290    2.95335927201412    0.85071257336787
O        -1.20208703660948    4.82376517637446    1.49273636475707
O        -3.17252766921279    5.30513064050887    0.56565014408282
O         2.97953344317821    6.36938434892675    5.07231886951470
O         1.51636577194049    3.31840444068019    0.57039738580534
H         2.25717260029375    3.90179437437445    0.26606034567987
H         1.46442902210028    2.62054425766222   -0.08680172624196
N         1.03314620099501    6.36559094868501    1.04162798738385
N         4.36447607384101    5.13299966490054    3.78175309025048
C        -2.46361908931834    4.79577881826473    1.44290041375471
C        -3.11755537019150    4.07897108387842    2.59949107417974
C        -2.60570454263316    4.25274732273957    3.88045903427415
H        -1.73990803227719    4.88526044286168    4.00506448547342
C        -3.19315488846434    3.63200069065199    4.96653806565490
H        -2.78962599530773    3.78179769011838    5.95628688373011
C        -4.29756215837979    2.81628369551716    4.78008159704156
H        -4.76186156402086    2.32827584111419    5.62375709692874
C        -4.80869802192086    2.61536845175047    3.51031876026372
H        -5.66002256387804    1.97200797593668    3.35192959446774
C        -4.21952298726207    3.24821758423962    2.42699677135891
C         1.38434784411904    7.56599101543118    0.58297375201943
H         0.86705937142124    7.92282502880001   -0.29832903592191
C         2.38235140300047    8.32182971902012    1.17245730781348
H         2.63586375971868    9.28921686025450    0.76898492136111
C         3.05894041701886    7.80333746685033    2.26230733511536
H         3.86090499720858    8.35223650824487    2.73268451781309
C         2.69511794440007    6.54812993927414    2.73669906766499
C         1.65404092639776    5.87559076404686    2.11055457108822
H         1.31724222121156    4.90890184294657    2.46244520287180
C         3.35525627077268    5.99903490061386    3.97371050660689
C         4.80958304737402    4.66574075435314    2.48446573085868
H         5.90191069948756    4.72694851028677    2.45374369405297
H         4.41220578489449    5.31577096832049    1.70426022640690
C         4.36470310452610    3.23301443738025    2.20110691320790
H         4.66787607071884    2.96460739200246    1.19353363135106
H         3.28394047096632    3.15212383669503    2.27004392729039
H         4.81454065620931    2.52980653803793    2.89804792726098
C         5.08208357294150    4.65391385600975    4.95033761985239
H         5.41183598066625    3.63070258139984    4.76420820515339
H         4.38213233481754    4.65819090425665    5.78907744012343
C         6.27488360656751    5.54649632734635    5.28133455780704
H         6.79789281559379    5.15842973061659    6.15103659026545
H         5.93069346624051    6.55340785015693    5.50272497328747
H         6.97214494411798    5.58986469541124    4.44731942891143
Cl        4.85772330944593    7.40356205207199   -0.85068094697955
O         1.20219969257906    5.53300361507347   -1.49276349328671
O         3.17256438453445    5.05193333864438   -0.56535771603538
O        -2.97923040219893    3.98724561833315   -5.07228903355516
O        -1.51634654372613    7.03839590635842   -0.57056514106833
H        -2.25710829847533    6.45503088205823   -0.26606549315361
H        -1.46433485110195    7.73631961653354    0.08655890949367
N        -1.03310665416662    3.99125552136315   -1.04155330582026
N        -4.36477425063304    5.22306391137441   -3.78182243795658
C         2.46372470772286    5.56100195631640   -1.44283022237072
C         3.11772848586328    6.27777362393552   -2.59940940733118
C         2.60594989976003    6.10383696344394   -3.88038388546456
H         1.74017558468145    5.47128698202419   -4.00495468078294
C         3.19340844113727    6.72450595909344   -4.96650014733487
H         2.78990112800045    6.57461560689224   -5.95624351584094
C         4.29776427809134    7.54030121283914   -4.78007904903212
H         4.76204609133076    8.02828085470461   -5.62378041798620
C         4.80885408639197    7.74134810675747   -3.51031854065588
H         5.66015504631880    8.38474998562649   -3.35196752012909
C         4.21965519844945    7.10859257430177   -2.42695175932749
C        -1.38431985342151    2.79090789059156   -0.58274884274558
H        -0.86702278647555    2.43417748678475    0.29859144866491
C        -2.38231212344322    2.03499426852056   -1.17215196975445
H        -2.63582768478835    1.06765581961911   -0.76856423902441
C        -3.05888915943939    2.55334674106125   -2.26207746348517
H        -3.86087019544969    2.00439572098114   -2.73236718571483
C        -2.69505097827562    3.80848632603504   -2.73663151224030
C        -1.65397153604490    4.48110258498052   -2.11056737523444
H        -1.31716151897778    5.44773947063872   -2.46258885847077
C        -3.35520101497477    4.35742265435446   -3.97371096370690
C        -4.80983814335276    5.69048672368052   -2.48458032873202
H        -5.90217060312749    5.62940809640289   -2.45387481812214
H        -4.41255113753468    5.04047780473210   -1.70430984767175
C        -4.36478626297438    7.12318937780030   -2.20136285641127
H        -4.66799122951866    7.39177531767621   -1.19384674388535
H        -3.28400757394062    7.20392405292786   -2.27023753557428
H        -4.81447603312317    7.82636169724131   -2.89843659550947
C        -5.08240297686861    5.70202886393465   -4.95044360608001
H        -5.41223170154346    6.72523133744848   -4.76438996442921
H        -4.38244439230614    5.69774210348597   -5.78917698238623
C        -6.27514628830718    4.80934899717842   -5.28138277659119
H        -6.79821917747564    5.19737679135348   -6.15106438043650
H        -5.93090266274445    3.80245783759309   -5.50278286972023
H        -6.97237191100179    4.76593638583555   -4.44734004809030

