88
CSD_code = HOSZOE | q = 1 | S = 0 | Stoichiometry = C30H54OP2Rh(1+) | MND = 4
Rh        3.60059259357799    2.97386130945234    5.58083528854043
C         4.36353457565903    4.49343025838716    6.24717237961360
O         4.84416786221580    5.46285149338828    6.62486863925492
C         4.84209625428251    0.01344090258500    5.18946797225620
C         2.67682608238576    1.12864566558640    4.57107627825175
C         3.32813929831219    0.02901457489687    5.19338622524998
C         2.57330865865284   -0.95813400306011    5.82854914629327
C         1.17672870293173   -0.84485039138145    5.87307926697925
C         0.52239506262188    0.25727626942694    5.30598666907570
C         1.26895254737250    1.27508937241462    4.71523316714964
C         0.64486484290365    2.57911438125124    4.26683647617080
C         3.19817492866017   -2.20745958675542    6.38758162987662
C         0.37395914627541   -1.91188604814693    6.55447743485327
C        -0.98163713007431    0.24448090799736    5.25488968488041
C         3.30985980506806    1.70588666522881    3.30025576463104
C         3.02053002837995    0.72274625575208    2.15748944796020
P         5.39659511229205    1.59008235727344    6.01739938176523
C         5.45849107601382    1.12426855619905    7.85735318977678
C         6.06031877528866   -0.24327335012743    8.17398267320286
C         6.20915947922918    2.20677517381848    8.63422624043476
C         3.99507503714598    1.15123016028328    8.31401034321456
C         7.11694982809112    1.91877455230433    5.28648772756399
C         7.73293982639643    3.16416442877079    5.92526015335904
C         6.89887869350563    2.24342798924663    3.80435680541196
C         8.06301109865434    0.72964959263835    5.42198445671640
P         1.55780317991333    3.95062309251691    5.14463764192870
C         1.40163645685617    5.43192534340413    3.97258016642768
C         0.02847237355167    5.56125541915967    3.31657386068319
C         2.46395617383608    5.23081184684570    2.88538589066311
C         1.74432912414030    6.71476213201465    4.72894614886680
C         0.57115145945480    4.21195672009111    6.73938946599201
C         0.44629290269094    2.82717928042695    7.38118426869823
C         1.40079931995617    5.08001515322306    7.68783647536135
C        -0.81863280288645    4.81136154530298    6.55015696531140
H         5.23080754901024   -0.02695546896930    4.17061592907080
H         5.24989753022749   -0.83648454133752    5.72921075446907
H        -0.41072873912995    2.64015571714463    4.52466472755288
H         0.73095446022171    2.71046040443945    3.18633486586475
H         4.19713218851671   -2.38057769201577    6.00117287365682
H         2.59932794867626   -3.07079951314300    6.10870517871197
H         3.24843709958170   -2.17374174994017    7.47657306577910
H         0.15695957321488   -2.72677282669182    5.86291505611078
H        -0.56978919531255   -1.52389673799662    6.92214169244634
H         0.91327729819419   -2.32484993269808    7.40170443436418
H        -1.37526395530579    0.96810353549886    4.54853964402946
H        -1.42834721156348    0.43636018083715    6.23046939739311
H        -1.31763610175581   -0.73656653447574    4.92551959455781
H         2.88156722300440    2.66897378325387    3.02392265437183
H         4.39166127783955    1.82269801252858    3.37478888031188
H         3.44378538193575   -0.25705995846663    2.36729752254329
H         3.45132051665515    1.09429725005133    1.23024311213554
H         1.94910716771477    0.59790167830681    2.01644640121061
H         7.04342119884269   -0.37381042271550    7.73247974125303
H         5.41687607132826   -1.05452123930429    7.84633011450676
H         6.16874412043421   -0.33274567127896    9.25383145301635
H         5.95025728535829    3.20119852404755    8.27211888055793
H         7.28427138383514    2.06876779773469    8.56897704384982
H         5.93768271541937    2.15311461915835    9.68720044732375
H         3.93396073603409    0.91770315743102    9.37550714400732
H         3.39097045334838    0.42451672670831    7.77450921643523
H         3.57546548444385    2.15214482421161    8.16231662256757
H         8.10060976933901    2.97426156733241    6.92689413661496
H         7.01182311437202    3.97890282548449    5.96274485236422
H         8.57905980123645    3.49584181186653    5.32609562686960
H         7.83956954467406    2.56797761212976    3.36331528865033
H         6.18522144436683    3.06407331744686    3.69617970685897
H         6.56317207221345    1.37964358393692    3.23383407281930
H         8.95668932266740    0.91427355382613    4.82793561434219
H         7.61065591988453   -0.19299579869284    5.06430642266605
H         8.38086545502318    0.59356678551595    6.45208905172957
H         0.05085293341108    6.39969373371133    2.62209526860148
H        -0.75317036909011    5.75660490260119    4.04288340975107
H        -0.23876162712338    4.67358398870314    2.74827960677875
H         2.18008253745085    4.44880869630708    2.18320765758136
H         3.43482793154941    4.99135711466759    3.33025509072207
H         2.57880396109693    6.14803893805460    2.31102140862284
H         1.84624119387130    7.53758230501665    4.02328331828607
H         2.68962007070045    6.61143575673567    5.25962548013068
H         0.96398679018775    6.98646411275407    5.43388995842820
H         0.17408924645000    2.93081106162796    8.42978766044958
H         1.39735780535217    2.28966437591419    7.33019080997399
H        -0.31926504286942    2.23277805515964    6.89584129395604
H         1.57571744998709    6.07717620882881    7.29855905307681
H         2.36585464266847    4.60903266409357    7.88190753366988
H         0.87766908635267    5.18103613466564    8.63707404128519
H        -1.39347307253043    4.27308032720150    5.79893760095367
H        -0.76978153322404    5.86096706124897    6.27405544930711
H        -1.36345828215318    4.74642736112783    7.49093681099987

