62
CSD_code = HOSZAS | q = 0 | S = 0 | Stoichiometry = C29H27ClNOPPdS | MND = 4
Pd        8.14395512079074    5.89666317060419    7.19454551844227
P         8.92626913235708    4.65196725436994    5.53942519363944
Cl        8.06619687539205    7.58738818683968    5.64170940539768
O         6.17441350010894    7.19002738848845   10.60076933930127
C         6.38770773343973    6.55983919151250    9.43930050842366
N         7.31756423619974    7.03271731465020    8.70433510454595
C         7.98643482881242    8.12527943998095    9.39393617036665
C         7.17620745666737    8.20217691432894   10.71633443384448
H         7.78304021679296    7.98356456207057   11.59972238777883
H         6.68025783174150    9.16694912432517   10.84783759066383
C         7.89231495979817    9.41197589700686    8.57653932201386
H         8.32433333069117    9.24916171310144    7.59001504928273
H         8.42650411520801   10.21405662752872    9.07991373192372
H         6.85209178090767    9.70316845536491    8.44418478405936
C         9.44764274241934    7.70116091916747    9.58254860638588
H         9.51058658533965    6.82420364564789   10.22868585634918
H        10.03451813827337    8.50938237691034   10.01192442479046
H         9.86344547346983    7.43870125435265    8.59472968765964
S         8.04686034681336    4.10106464347198    8.68603215337337
C         6.29855754281849    4.21615371388315    8.66261100370131
C         5.61038894626005    5.37338379803093    9.08711651965453
C         4.22423303720933    5.37121862918345    9.17816539799849
H         3.72221653393297    6.26526195593143    9.51737396143701
C         3.50289678262552    4.24653459206029    8.82384541898198
H         2.42547110923972    4.25491543387550    8.88559753873819
C         4.17107070856447    3.10809211472277    8.39341227604025
H         3.61025442293619    2.22772522513287    8.11506826429032
C         5.54920543339015    3.08683015245880    8.32703102006716
H         6.07787530855440    2.19885810536394    8.01177240034641
C         9.12846749517836    2.86001531579540    5.77890677197057
C        10.20134095676086    2.44607386955322    6.56419689395297
H        10.87460989937966    3.19131880309811    6.96991371823444
C        10.38655461614692    1.10493815650507    6.83354824866224
H        11.21770285431152    0.78644273773462    7.44510758977907
C         9.49733854483362    0.16884175698563    6.32716149516272
H         9.63854366013583   -0.88030448460990    6.54156790874708
C         8.42317936085241    0.57826402785653    5.55583882051869
H         7.72657875174204   -0.15110062419026    5.16791829756291
C         8.23243174307803    1.92210915327451    5.28220872069333
H         7.38891663571529    2.24126528796288    4.68504871472148
C         7.64863762420201    4.76181225531140    4.25241321237210
C         6.34383102600981    4.82874051996065    4.74631758523447
H         6.17514600631185    4.82728295687967    5.83197333101319
C         5.27755066762648    4.91619217390326    3.87301992752823
H         4.26828615850051    4.96968567340593    4.25442455387424
C         5.50867029109449    4.95044750458184    2.50542323652004
H         4.67642833258992    5.02849166086044    1.82153866550547
C         6.80271697192944    4.90343968713306    2.01592674418716
H         6.97871606215590    4.94877834463208    0.95110032844783
C         7.87724855533272    4.80753259648110    2.88511100764987
H         8.88743225051759    4.79173168434589    2.50297574131990
C        10.53601451622912    5.13043690326856    4.86491423070347
C        11.16511694126473    4.40212030603642    3.85949412815307
H        10.68607800479115    3.52263240481691    3.45023672464853
C        12.40929783416635    4.79912920148337    3.40531765541459
H        12.89787679637973    4.24186713397231    2.61924507150460
C        13.03315861630970    5.90576859345373    3.96075643402544
H        14.00458539354069    6.21073792139169    3.60042015063250
C        12.42133481115422    6.61327526765615    4.98301055901972
H        12.91745447695893    7.46558167132416    5.42286722972457
C        11.17487406345921    6.22447775432768    5.43889696747367
H        10.67146585055345    6.76575198446354    6.24001626551815

