94
CSD_code = HOTBEX | q = 1 | S = 0 | Stoichiometry = C45H45OsP2Si(1+) | MND = 9
Os        0.24506322841855    0.73348204967488   11.67536344927507
Si        2.36149291080462    0.30572371218733    8.68837786884842
P         3.08660997404013   -0.81564009864828   11.55556964307659
P        -1.52526019004363   -0.74857224328558   11.25605692595261
C         0.39074923578185    3.03568653490217   11.53290030124110
C        -0.80118376289969    2.69140118666999   12.23029380293658
C        -0.42846189204911    2.02729323216179   13.42151943599399
C         0.98941693509833    1.96771260972052   13.46259541714591
C         1.49288069447977    2.59822543282226   12.30433885183524
C         1.79743494020509   -0.35245749816276   10.41474452091760
C         2.66811620502612    2.19143092667257    8.68693180060230
C         0.95055521820866   -0.11657636054927    7.47831372787138
C         3.90252425686978   -0.65845261470666    8.10019330260105
C         4.15922384969395   -2.17149854095588   11.02575685627421
C         5.54596927331068   -2.09399804370358   11.08411686777147
C         6.30735002088100   -3.17703999385647   10.68028724947720
C         5.69102079339410   -4.33063049694411   10.22339116537421
C         4.30706307742715   -4.40951184445343   10.17318758987168
C         3.53881949165591   -3.33316545357233   10.57324198317977
C        -0.98925236958402   -2.33961913720156   10.53339170308942
C        -1.12313671297075   -2.57014765897579    9.16656094023303
C        -0.65770054580534   -3.74764369127050    8.60763075784291
C        -0.05155535327515   -4.70583490928470    9.40303878940009
C         0.10044405406722   -4.47671371144734   10.76185614516461
C        -0.35558718660558   -3.29754989297297   11.32484039271857
C        -2.81765268260714   -0.21155769297709   10.07771533773155
C        -2.80157877531482    1.02538161220154    9.44965351376097
C        -3.83425079098390    1.39143668023177    8.60223636656128
C        -4.88990426507328    0.52471808153994    8.37864666019497
C        -4.91324508366483   -0.71254722704602    9.00478921732592
C        -3.88708795664641   -1.07882848164983    9.85355328852553
C         4.15787901739811    0.51636830789733   12.14979494604767
C         4.87649334064617    1.29917310449819   11.24920800955181
C         5.69207395520297    2.31396162336520   11.71673078158299
C         5.80161821700030    2.54859624259369   13.07910203026885
C         5.10234578270383    1.75903105508235   13.97769864762388
C         4.28395038089199    0.74218721506747   13.51793880682707
C        -2.66940638508638   -1.18898518611710   12.61427259292300
C        -3.32914915812308   -0.10972786951949   13.20040212126932
C        -4.25394185433749   -0.31342691805657   14.20545268648681
C        -4.53460465251259   -1.60296741125207   14.63136906222738
C        -3.89860858740854   -2.67955341382464   14.03749365572086
C        -2.96953718802534   -2.47990641062323   13.02930853123590
C         0.82219642664873   -0.80534798698784   13.01144648844240
C         2.09615630809094   -1.38739717930731   12.93354406576389
C         2.57829556328339   -2.29828437205529   13.86980143262048
C         1.78220608602751   -2.65209570932603   14.94083352948936
C         0.53300334645781   -2.06538989043898   15.07161775514352
C         0.06911817457395   -1.15932244895264   14.12995169832281
H        -0.06577173133852    0.86730838010822   10.17116091849753
H         0.44738540638225    3.66051330163278   10.65424466146166
H        -1.79689084207581    3.02421909852347   11.97218450586017
H        -1.08862747822429    1.76793201692286   14.23576403203155
H         1.57877746413006    1.64756044706984   14.30928327999756
H         2.53008459747048    2.82690460427692   12.11237227419765
H         1.36074516367317   -1.34358108745338   10.19128441947330
H         2.94829904715698    2.58421488266208    9.65854578398631
H         1.77007844824037    2.71218960382154    8.37015079919671
H         3.45344512311986    2.45486604554490    7.98492500503896
H         0.85960234237194   -1.18817910563711    7.33005400817462
H         1.13156475335870    0.33361069413749    6.50806482382666
H        -0.00697359245629    0.24754589363708    7.83783649953392
H         4.76833192228820   -0.54515832883640    8.74518117476345
H         4.18939458123543   -0.32060493874742    7.10958251099254
H         3.69286757677379   -1.72190989387913    8.03067155242952
H         6.02584767140402   -1.19487694446651   11.44453236227205
H         7.38421660725158   -3.12017904358416   10.72382869898358
H         6.28991740855739   -5.17120146062076    9.90876860831351
H         3.82859990946930   -5.31091355970690    9.82172605300094
H         2.45852936887691   -3.38485106102205   10.54286732518897
H        -1.59665272716158   -1.82736679553677    8.54245436960410
H        -0.77264425872067   -3.91959910311388    7.54815745379435
H         0.30259281995860   -5.62734337285514    8.96684479794077
H         0.57505071832696   -5.21893611056418   11.38710883370119
H        -0.21498554913936   -3.11741886725734   12.38015909031798
H        -1.97309391165506    1.69904666088534    9.61945631682776
H        -3.81430123043636    2.35560792111212    8.11686311042867
H        -5.69438926986711    0.81113801443865    7.71898168950047
H        -5.73511417250815   -1.39061569675429    8.83238030968065
H        -3.90578116564390   -2.04246159231078   10.34403658658924
H         4.79129968199066    1.11276563826767   10.19005376362129
H         6.24407323544323    2.92299835591942   11.01697851650063
H         6.43586500521686    3.34345728912159   13.44004301680195
H         5.19522738731395    1.93492284265021   15.03873984377892
H         3.74241755896463    0.12066081599803   14.21786547544581
H        -3.11111875477375    0.89055956906040   12.84924567739970
H        -4.75976940634817    0.52796306151256   14.65496224942309
H        -5.25478178732994   -1.76672014458512   15.41809166124621
H        -4.12881585760504   -3.68490668958256   14.35660331090503
H        -2.49284042694140   -3.32998034723883   12.56587077164680
H         3.56948332777346   -2.71550225967733   13.74746432602374
H         2.13271335698731   -3.36303256374340   15.67288772206524
H        -0.09284371652351   -2.31435008823056   15.91602686814654
H        -0.90897997025594   -0.72861530107190   14.28953422704200

