35
CSD_code = HOTFIH | q = 0 | S = 0 | Stoichiometry = C10H10CdN4O10 | MND = 6
C         1.67288814791359    0.12148083772681    7.42171012928028
C         0.64557053901498    0.80077752373220    6.54686227269235
C         0.21746996727113    0.51516695652242    5.26671579525469
C         0.54433307688893   -0.53050261097566    4.24997966101747
C        -0.83618340916772    2.27810306490436    6.03360126131365
H        -1.50240635821261    3.11837415835706    6.09091602496076
N        -0.03203955838326    1.89679619335617    7.00002644365640
N        -0.71791150423344    1.46838504405942    4.97193343958953
H        -1.19605878732877    1.50165245368610    4.08120800630270
O         1.88850170076507    0.65566218069444    8.54201843663266
O        -0.37647392782483    0.90855245836484   10.21980011947175
H        -1.18894170369312    0.47279006689752    9.93799485951177
H         0.33776075824225    0.26130387356534   10.12011215934633
O         2.20137359943020   -0.90925659313702    6.99480402119814
O         1.42590844788009   -1.43036323059938    4.58805567420860
H         1.80105268187659   -1.31073780647368    5.53256641394853
O        -0.02339519018954   -0.49176229457329    3.18308081261860
Cd        0.87528871768149    2.50292133455516    8.85465559791182
C         0.07784968598494    4.88489214997418   10.28677660974744
C         1.10478727630896    4.20565157448775   11.16209761378459
C         1.53267035508428    4.49163873664385   12.44222976103511
C         1.20583994237159    5.53777717464166   13.45849829189987
C         2.58597319207327    2.72808843785877   11.67627976148646
H         3.25196221286906    1.88759865048035   11.61948477553250
N         1.78220264285095    3.10927725720840   10.70949563139344
N         2.46766786920765    3.53823417613129   12.73761621880514
H         2.94558399481469    3.50515426647386   13.62846983664608
O        -0.13708554854070    4.35075606884307    9.16631655521277
O         2.12844447248096    4.09615005766144    7.48951726524535
H         2.94140626764677    4.53101522414270    7.77124191842420
H         1.41502933072478    4.74437633309313    7.58856554176415
O        -0.45028029223806    5.91605537836611   10.71308033211236
O         0.32453424785613    6.43770058541495   13.11990061217877
H        -0.05046422421068    6.31777981683748   12.17535986972827
O         1.77334137678678    5.49931050108705   14.52552827608631

