46
CSD_code = HOTGAY | q = 0 | S = 0 | Stoichiometry = C21H17MoN2O4P | MND = 6
Mo        0.85581069052256   -1.92711918693788   14.80204842342815
P        -1.33676647990057   -2.50906382576737   15.47814700136044
O         3.85114352767677   -1.34509321524980   14.32593433399950
O         0.17933656809895   -0.71508544782733   12.04512948778398
O         0.47232718235758    0.86921461903697   16.08412150582839
O         1.15492727134476   -4.72126041868396   13.49268463949193
N         1.21532301213732   -2.80333589562518   16.76303557562214
N         0.72065484418294   -3.87070409175023   18.61674568255415
C         2.74189031217181   -1.56101678895152   14.49856918707195
C         0.43348490091272   -1.16098749146587   13.06912470775885
C         0.63197221039757   -0.16466783025219   15.62548828554567
C         1.05291636502905   -3.69801818671059   13.99429740244138
C         2.28386699164282   -2.72585476427621   17.59716060334351
C         1.99266185785070   -3.38409529535071   18.75522344046921
C        -0.00971474743196   -4.63763836040230   19.58713809896759
C         0.28334268548246   -3.49365455484294   17.38985568073511
C        -1.04470090980145   -3.79540087972157   16.80379504495137
C        -2.32899279242112   -1.28764095913189   16.38110916521406
C        -1.93260753007185   -0.88225126143397   17.65281890291404
C        -2.60732492855264    0.13558115821525   18.29985127481921
C        -3.67142572252804    0.76782070042320   17.67657408208798
C        -4.05307030340343    0.38700700470061   16.40064789360991
C        -3.38217362753024   -0.63269823377113   15.75054364150641
C        -2.59411843699773   -3.36210905419203   14.48677503866294
C        -3.77564157585511   -3.83593132824647   15.05292073912469
C        -4.69575925083465   -4.50280382401283   14.26720914810589
C        -4.44561267306814   -4.69695134697144   12.91665020464249
C        -3.27583821726233   -4.22026691192740   12.34938109831877
C        -2.34975667293036   -3.55296512498288   13.13293772424936
H         3.18048723192101   -2.20809537728373   17.31521830061331
H         2.56591631837982   -3.54427803152857   19.64475491522645
H         0.63631840467334   -4.84445549317038   20.43788304396416
H        -0.88576704629076   -4.08526841031379   19.93618119603401
H        -0.34096286132307   -5.58354738130500   19.15435607161326
H        -1.83408543396461   -3.81776084545117   17.56244899449201
H        -1.01993149145081   -4.76610706132852   16.28900849116267
H        -1.08154668828266   -1.35613644503111   18.12930644310260
H        -2.29781975338128    0.44524316956082   19.28775105432892
H        -4.19414498950571    1.56645239346170   18.18159309792058
H        -4.87130250311471    0.89153397715339   15.90806253832801
H        -3.66655667975418   -0.92513505121457   14.74826269211897
H        -3.97323205380648   -3.66950955064951   16.10401331828809
H        -5.61218358140166   -4.87142767799433   14.70514037511600
H        -5.16840553707903   -5.21842611723587   12.30663435971967
H        -3.08499097998505   -4.36739403865252   11.29683029275045
H        -1.43124690680582   -3.16999726287452   12.70493680061356

