127
CSD_code = HOTJUV | q = 0 | S = 0 | Stoichiometry = C43H75N4Si4Y | MND = 4
Y        21.60338352576685    8.94560205980458   15.67952763055117
Si       21.82272838981203    8.81442529475366   19.16611589644872
Si       21.21598774061998   11.48822123062751   17.93591183307220
Si       24.65192303698588   10.29191384531238   14.89317657429613
Si       22.52232509384885   10.72915598266438   12.81911484282096
N        21.39073500918083    6.71774941305242   14.89557425312036
N        19.53802954534489    7.86605882724127   15.21615287654275
N        21.50863387148916    9.79546225864743   17.78255570026013
N        23.04384374807211   10.05211919508353   14.31750123600658
C        20.05934791175352    6.70194517953669   14.83024652955788
C        22.28859938391237    5.81983889790913   14.18959354670417
C        23.39153159173764    5.29013972421936   15.11441173306796
C        22.95578633834590    6.62737849105959   13.06836347607447
C        18.17244003208619    8.08354530717143   15.66225970770910
C        17.56785234619959    9.33774798864833   15.01869321892847
C        18.21527246660640    8.30391560375852   17.18008734857664
C        19.24810781784063    5.51315991748334   14.37669856399505
C        19.25301531174290    5.09297694077391   13.03129962481135
C        18.48259071841021    4.00210474112436   12.62926136374797
C        17.73637444592996    3.27215183230874   13.52817663529527
C        17.74159982600358    3.66143548487027   14.84945364572437
C        18.45867703411903    4.77680126092938   15.28234107659420
C        20.01411680899044    5.69874611010126   11.90649306087473
C        19.64079255580423    6.94111220695898   11.38562414155713
C        20.29862112297655    7.45244938414090   10.27926326388247
C        21.30633046491090    6.74156704532146    9.64293258166288
C        21.62173456869629    5.48381113566963   10.12814706064034
C        20.98470536417068    4.94417731694006   11.23845117900871
C        18.49941918509506    7.69119290117438   11.99381444463975
C        21.99481229500437    7.30047476040107    8.43522391297940
C        21.38258169813440    3.55400951660404   11.65277168283007
C        18.27276731942659    5.04452298082105   16.73327464919022
C        16.99989093962704    5.36300511678612   17.21935983760643
C        16.80954808441063    5.50797533091769   18.58763787963952
C        17.83949821378426    5.32032609963446   19.49364956461239
C        19.08310173964286    4.95134777728299   19.00018464901398
C        19.30517264332701    4.79474461769442   17.64184829500863
C        15.79980152005007    5.55199162698507   16.33246810819915
C        17.62200649569975    5.50752957814136   20.96383130833842
C        20.63236607115197    4.31398477196136   17.14934602439173
C        22.54678945676774    7.15862526383308   18.51973784330789
C        20.28031156286309    8.37564899547034   20.21850478173931
C        23.09008451779644    9.54928590486360   20.39834389207021
C        19.76677036403214   11.93844398925330   19.10682939087275
C        22.71634276426766   12.51935508881455   18.53186882068156
C        20.75761530212287   12.10254572860743   16.17902378152608
C        24.80724838126684    9.22365251054755   16.47696972819161
C        25.08025661698624   12.09636014411491   15.37260475226152
C        26.02218007026277    9.72859889863762   13.67719437259527
C        22.97050605023683   12.57486773220703   12.57501150148649
C        23.17098116543047    9.83972996395905   11.24871608264121
C        20.60776336592734   10.59758320396951   12.79180008409059
H        21.74207157202035    4.96810240469578   13.77287887031653
H        23.01148061412896    4.57634939379572   15.83903066785036
H        23.85517282942542    6.12049632671497   15.64764681478005
H        24.15365724168809    4.79361472378188   14.51803683511149
H        22.20291767787483    7.06670683900047   12.42108508014523
H        23.54320599924324    7.43760721371157   13.50605804784522
H        23.60637700737385    5.99452183385251   12.46897740337575
H        17.53925099243944    7.22417742612535   15.41995542940911
H        17.34793496644467    9.19447678064859   13.96507776409398
H        18.25987909283690   10.17378941106437   15.12295820385683
H        16.63985547146579    9.59117504999192   15.52623733998166
H        18.68675179980525    7.45810839525358   17.67060391735479
H        17.21210027453356    8.42651387854673   17.58221329582067
H        18.80482637129174    9.19679604246501   17.39934019980935
H        18.48686462599657    3.73122828762209   11.58341587508470
H        17.16118250899495    2.41750504597157   13.20495117258733
H        17.17492633232711    3.10320657007220   15.58049548050423
H        20.00764027133641    8.41893370167983    9.89269721890316
H        22.37904308029313    4.89654932191445    9.62757536129918
H        17.62310831019654    7.04813091329446   12.07881277847140
H        18.77521199648243    8.02061148137194   12.99115828992784
H        18.24189174923263    8.55949809599897   11.39227069762044
H        22.07892138904425    8.38225773349300    8.50551315974444
H        22.98964391726725    6.87564928453645    8.32516092505839
H        21.42358665369775    7.06356569400471    7.53672959325834
H        22.46364630149286    3.49267722773027   11.77057327492952
H        21.09687093210424    2.84519545254214   10.87496589805841
H        20.91078059782729    3.24343686095298   12.58066000158251
H        15.82370092305849    5.76390989687152   18.95035255138959
H        19.89215301172059    4.76179357666686   19.69142738699825
H        16.05317037238590    5.52767231092432   15.27638223089875
H        15.07477748692706    4.76032285876172   16.52386068775991
H        15.31485264921201    6.50135999247988   16.55582737546751
H        16.57379597064629    5.37611224526028   21.22179020294876
H        18.21908750185074    4.80104045202938   21.53634538940242
H        17.92119376413538    6.51420152430599   21.25711278609158
H        21.26606205440467    4.00880411058707   17.97850020823684
H        21.12467584369468    5.11454299840392   16.60429075026421
H        20.50534721200007    3.46933393074827   16.47196512490684
H        23.63242804694053    7.16218391275162   18.52998968428300
H        22.21098424229039    6.97117985508552   17.49450499896891
H        22.21997105593664    6.32474803541863   19.13156591834521
H        19.65928117004569    7.63352760564377   19.72906704888110
H        20.57445789794863    7.97509298563677   21.18396545684639
H        19.66702905692413    9.25086725155811   20.39865617237848
H        23.40901981354112    8.80924317465014   21.12563896269801
H        22.65165229614780   10.37708193421379   20.94439058579904
H        23.97616348116310    9.92147506978856   19.89577523776932
H        18.85410283810597   11.40916540788042   18.85238549497430
H        20.01766707892000   11.68668805571062   20.13139859776782
H        19.55114348421850   13.00163290501344   19.07519239117980
H        22.80500832338868   12.48747386809883   19.61203952801503
H        22.62327819384062   13.56191493355718   18.24321492856158
H        23.64466484550309   12.14246162787560   18.11633388508428
H        20.51154282428462   13.16053439940239   16.18196133742745
H        21.59187849610193   11.96230452671778   15.49236021055185
H        19.88787848378673   11.57215368634028   15.78882029356180
H        24.60889147221810    8.17208805739776   16.26587573515045
H        24.11168870246162    9.56623884624380   17.24254348675715
H        25.80780424927115    9.28192751070616   16.89570064224123
H        24.24096963908319   12.58735956499365   15.85324929701548
H        25.92351499532661   12.13756172934780   16.05533619299798
H        25.34201234626225   12.67921625338575   14.49657857826664
H        27.00152162079503    9.76557231485577   14.14347767387855
H        26.04900179213556   10.37960775545852   12.81030824981588
H        25.86364310358372    8.71534737590283   13.32235249323169
H        22.43203324601870   13.00491487805687   11.73624435061140
H        22.74195708044819   13.16890633014743   13.45319742976416
H        24.03035383466282   12.68356187041080   12.37345011987082
H        24.24061477521301    9.67614101038586   11.30640540978887
H        22.97884091754710   10.43776823386827   10.36286507445880
H        22.69970660409691    8.87396393928699   11.10359388679572
H        20.24344589659664   10.41940651126271   11.78582981216917
H        20.27405201815641    9.76397349549061   13.41818083368370
H        20.13627681550020   11.50762462074431   13.15037171971447

