28
CSD_code = HOTKUW | q = 0 | S = 0 | Stoichiometry = C9H13Cl2N3Zn | MND = 5
Zn        5.80559947593108    6.58713222338256    0.74096285641909
Cl        3.59046107088078    6.18784553696226    0.88530289961532
Cl        7.43330526001447    6.08794402352666    2.15659122236619
N         5.62621084780572    8.70268572337444    1.22845661208907
N         5.58899580391939    7.62416682985097   -1.15312145720430
N         6.23999751885781    4.98599181574562   -0.77321402029033
H         6.98545578484486    4.36812545134831   -0.46828731058150
H         5.38879629754160    4.43539742026247   -0.85884681823581
C         5.76524160619236    9.23203990784351    2.42799740725792
H         6.24465256625945    8.60357174799829    3.16627515269466
C         5.32847698861542   10.51501700820191    2.73018738006073
H         5.45303549195051   10.91435084638915    3.72393025852922
C         4.72903213242587   11.25715684500784    1.72693497165943
H         4.37243295819859   12.25834282060083    1.91938893387338
C         4.58976696847790   10.69859339359478    0.46582364262927
H         4.13298858006663   11.26549933276169   -0.32910734230108
C         5.05342813922450    9.40354175085579    0.24875693873536
C         4.93885505684414    8.70791269765226   -1.04839693363515
C         4.06639780516091    9.31474890080943   -2.10231800008358
H         4.51949032468273   10.22998479386340   -2.48113296161010
H         3.09681350840839    9.55965443350471   -1.67488795054646
H         3.91714641683374    8.63038317596393   -2.93169810842810
C         5.56807836051108    6.75978076782342   -2.29336563003827
H         5.83269230860509    7.29132100178390   -3.21419354292905
H         4.56287997681793    6.33481693505400   -2.40384442998823
C         6.56611924798667    5.62589085666577   -2.04076154855954
H         6.54538207075990    4.92600831323915   -2.88727628150589
H         7.56866743218217    6.05109544593310   -1.95565593999393

