75
CSD_code = HOTPAJ | q = 0 | S = 0 | Stoichiometry = C30H41AuN2O | MND = 2
Au       21.07420627604166    6.70884569965473    4.88765139596518
O        23.45023526668323    5.05288742133113    3.10311397963385
N        19.82177060914310    6.88474087857149    7.72502078195857
N        21.95949947492259    6.82124402853731    7.71049194264792
C        20.88535546863378    6.85870205936040    6.90440123062382
C        20.22498103885202    6.86956500103059    9.03631295923850
H        19.52626379693064    6.88835235687932    9.84688972316656
C        21.57907015580518    6.82924175699068    9.02532920206050
H        22.28836499044696    6.81221651797344    9.82696085242099
C        18.47315029256803    6.90466801879431    7.27904199439305
C        17.88160362341676    8.12978073792475    6.96870465248191
C        16.56889520139140    8.12280162112752    6.51681659666846
H        16.08619731619750    9.05318900974436    6.26223689002093
C        15.87508636984830    6.93627472796655    6.37906886479156
H        14.85628136980452    6.94801294054013    6.02160090808278
C        16.48113598666965    5.73327150618452    6.68700669668573
H        15.93068474072248    4.81463831542025    6.56101809375743
C        17.79062196015595    5.69372641658742    7.14575805500874
C        18.64760873606904    9.42629158216669    7.08328914753591
H        19.61769572489271    9.23056392604117    7.55074211425392
C        17.90633869603928   10.43889615642791    7.95834768265541
H        17.68451093750437   10.01118210778959    8.93415718874390
H        16.97148752532143   10.74632427651105    7.49795078310324
H        18.52103013483658   11.32476488432838    8.10156529687204
C        18.90997597299054    9.99326853803596    5.68626694338325
H        17.97508427603581   10.22281402431353    5.18178278680148
H        19.45744731350237    9.26835089052939    5.08542672770944
H        19.49931061751113   10.90453704448336    5.75564024134010
C        18.46830986564625    4.37535830198062    7.43709919184443
H        19.39852588759951    4.56223641867801    7.98362617672747
C        17.60173548371102    3.46442599615054    8.30841444875347
H        16.72344705999294    3.12062014574232    7.76935813926916
H        17.27443871633198    3.98803275377561    9.20447075164359
H        18.17443849560461    2.59016725578315    8.60945637087545
C        18.82614420326316    3.68846642632793    6.11603495591206
H        19.47846683781895    4.32556315249336    5.51932767107238
H        17.92864537613084    3.48155446113593    5.53843709551389
H        19.33992022441054    2.74944440672485    6.30825491722312
C        23.29393177078944    6.76118239866843    7.22003708051519
C        23.82143155704433    5.52162845982306    6.84884445817861
C        25.11993270655434    5.49029662730906    6.36120310483788
H        25.55400050615965    4.55154395982688    6.06125743324969
C        25.85383991598135    6.65350313354862    6.22875006450620
H        26.85796481345130    6.61155909186609    5.83358802163029
C        25.30544417258476    7.87183689642033    6.58117320300604
H        25.88352912766489    8.77314868602560    6.45013174788192
C        24.01549085017533    7.94828487636503    7.08771779073991
C        23.01366284951817    4.25412209971552    6.99423370417402
H        21.95000845632589    4.51468343280775    6.98480091769675
C        23.33500944867858    3.59625030536902    8.34130999307285
H        23.09023184226134    4.25933238521309    9.16977211802491
H        24.39378831068579    3.35314365335502    8.39877879045005
H        22.76293743131887    2.67803459467488    8.45471908889085
C        23.25376008825437    3.27788748168041    5.84304824867015
H        24.21557295075297    2.78106454258899    5.94197695575858
H        23.22766701316084    3.79512782003681    4.88583336065543
H        22.48082261110867    2.51235749583420    5.84517303980852
C        23.39293780236157    9.28495711245608    7.41871834272371
H        22.46844573294592    9.12163562208793    7.98298065663819
C        24.31044735553493   10.15034386514666    8.28370384542132
H        25.19623946899234   10.45707899206557    7.73475213232586
H        24.62641040774879    9.60488194237330    9.17071545529924
H        23.78265870555299   11.04766616244000    8.59980451371380
C        23.02861494012778   10.00240518217302    6.11609768058417
H        22.35120359548258    9.38662072952189    5.52586955101552
H        23.92059688240404   10.19304624770802    5.52463868832785
H        22.54279488124385   10.95205913849283    6.32990392024133
C        21.51001914437909    6.41895816764644    2.89060412848113
H        20.96996432751848    5.55622547273615    2.50650315172614
H        21.28219127817277    7.29699126031250    2.29196443251689
C        22.93949298449176    6.15952439602165    2.96295656951875
C        23.84269305549866    7.38965289347616    2.88511833922939
H        24.28020124136354    7.42525285448624    1.88812372003306
H        24.65360010654302    7.29807669069177    3.60527298201538
H        23.29239564370162    8.30921356499501    3.06354931761226

