67
CSD_code = HOTQAK | q = 0 | S = 0 | Stoichiometry = C26H37AuN2O | MND = 2
Au        4.73758255266094    6.06514699366748    2.85330283449356
O         2.92936087382625    7.27381429182070    0.20672843357778
N         5.05128038905077    4.58205830058330    5.55191690579245
N         3.00980255628663    4.48501548984594    4.85234641375042
C         4.23356055340326    4.96632898909122    4.54746251347640
C         4.34262246240833    3.86535031232141    6.47630974609333
H         4.76374199720133    3.44924831116833    7.36504398632776
C         3.06483697997643    3.80496478835756    6.03772449582106
H         2.22739817733628    3.32807746377072    6.49727992400310
C         6.48050649484004    4.89654929135494    5.64135990749263
C         7.21164671865308    4.30138694535971    4.43277372017750
H         6.77123553252689    4.69683130055195    3.51447216088341
H         7.08364748812575    3.21582975979121    4.42994114088700
C         8.69436161785632    4.66007310073315    4.49731528737008
H         9.19952242063146    4.24428636777103    3.61948527736148
C         9.30552643822426    4.07125380601270    5.76700302879812
H         9.20958921668485    2.98308047743634    5.75839265630512
H        10.36880826151564    4.31266073502463    5.81745570359658
C         8.58437462396329    4.65199079666506    6.98099822722296
H         9.00363898887583    4.22086164053085    7.89699998621165
C         7.09450884951794    4.30544409604396    6.91506136857863
H         6.59565575072070    4.71362294718464    7.79728902864056
H         6.98150745516628    3.21862703649950    6.91741761131552
C         6.66388713896740    6.41806134420756    5.67810849909038
H         6.14933142131760    6.82382615026224    6.55291207518714
H         6.21274259700019    6.85811416691742    4.78583699306951
C         8.15122446606237    6.75841546397884    5.73313542044896
H         8.26687408638432    7.84695862264765    5.74132149079357
C         8.76230361379825    6.16826736751649    7.00228314696509
H         9.82398897143216    6.41578702592028    7.05678380391399
H         8.27466220200678    6.59100691828667    7.88366649117806
C         8.85067371838285    6.17977892429801    4.50445229738273
H         9.90989910365748    6.44324616955008    4.52232753701229
H         8.41249612948062    6.60104870967018    3.59781930627127
C         1.79589782181749    4.66709907457554    4.04295677447600
C         0.59919545415024    3.98432663077924    4.71443731756698
H         0.42829141638332    4.41504375819933    5.70437813572450
H         0.79002166204508    2.91341693476590    4.82259280966781
C        -0.65811543158594    4.18112912661016    3.86450497035507
H        -1.49819942571493    3.68351558058255    4.36330496422448
C        -0.44611183648856    3.56589745932192    2.48345833294161
H        -0.25996630103421    2.49269669356959    2.57653286673388
H        -1.34433082103410    3.69782470195889    1.87759984002543
C         0.74208900035886    4.25146490959822    1.81145511634330
H         0.90741315364925    3.81288531208625    0.82211590099820
C         1.99652218460266    4.04220674842916    2.65820238537280
H         2.85026578288569    4.51203538169119    2.16639082632593
H         2.21023268034534    2.97477994968873    2.76667520223308
C         1.48747099160123    6.16172276656787    3.90186287732890
H         1.34620030294593    6.59995064663094    4.89402338156348
H         2.32824281142562    6.66647420010461    3.42230822809986
C         0.23387772834847    6.35268320938678    3.04992706617351
H         0.03806701785294    7.42420426679559    2.94792132182906
C        -0.95452176129079    5.67225180254584    3.72591074374128
H        -1.13156483132069    6.11158909963613    4.71102056688589
H        -1.85652730604869    5.81687203783323    3.12865933487297
C         0.45935966250520    5.74535327014121    1.66738772491261
H         1.29118339188926    6.24818016271615    1.17059746047157
H        -0.43031268381897    5.89209026045644    1.05211924415020
C         5.12191253322791    7.15218518821707    1.12541979317513
H         5.06617375594092    8.21544206797638    1.34838340382511
H         6.09415047417307    6.91019650585797    0.70360386726496
C         4.03286147111902    6.74118076657378    0.25431967492497
C         4.31608521755241    5.52846151694235   -0.63063025077525
H         4.64961871320162    5.89225426492964   -1.60176589411243
H         3.40427882556652    4.95433322331140   -0.78279722640892
H         5.09073849680988    4.89293837667509   -0.21010418040146

