57
CSD_code = HOTRIR | q = 0 | S = 0 | Stoichiometry = C20H30Cl2P2RuS2 | MND = 6
Ru        6.65199250922573    2.10009378907782    8.10157081916474
Cl        6.71376870867189    4.47420677894265    7.80047653630206
Cl        6.71922312266925   -0.27374228396714    8.40143057476464
S         5.00626624147216    2.18677407476109    9.86241928323060
S         5.00163164507846    2.00974609829349    6.34541508588792
P         8.13182791910524    2.39827015748408    9.80332107258642
P         8.12771209656394    1.80632263810256    6.39533251849206
C         9.40618847709292    3.70085532955147    9.67115866757264
C         9.09682382417144    1.01235227070204   10.50347737661793
C         7.16355339718499    2.93528015506563   11.30355449741720
C         5.81217422828943    3.48197877330024   10.87996311932013
C         3.47526779101239    2.99565976077043    9.41670060772212
C         3.44946042901095    4.15012548655368    8.65220698686986
C         2.22815593569983    4.71402547809760    8.32771124435753
C         1.04903130249767    4.12657011430538    8.75518354323414
C         1.08538088552554    2.96772583201725    9.51289979832579
C         2.30033217452983    2.39931803870949    9.84927596178135
C         9.08766746036208    3.19494318892971    5.69368490659398
C         9.40508713984517    0.50637971485459    6.52317698085744
C         7.15661900148161    1.26832528290415    4.89735917906241
C         5.80829312335073    0.71733155785307    5.32489368670683
C         3.47332712295855    1.19539580133832    6.79004450226389
C         3.45105885117886    0.04340589000696    7.55834538509393
C         2.23166509109316   -0.52647940289176    7.87956315003024
C         1.05102040582051    0.05266359314374    7.44496623366467
C         1.08382045550786    1.20937382162698    6.68385669701868
C         2.29688685016258    1.78380819928402    6.35094470574573
H         9.90790689023850    3.83754500176985   10.62865030500096
H        10.13099339915596    3.40204138199003    8.91446025461120
H         8.92519603095297    4.62441373122276    9.35387957140948
H         8.42684008083129    0.17005351935581   10.67112216006250
H         9.85668384142696    0.70942745430968    9.78453166152913
H         9.56808489388313    1.31506224478752   11.43834599089383
H         7.02042930467798    2.05279531522581   11.93648671355627
H         7.72665055543867    3.68944341806274   11.85958782184794
H         5.92099751098491    4.37217078218180   10.25700938843863
H         5.15941517698704    3.68293293241526   11.73089254640042
H         4.36980455849464    4.59357187977937    8.29785674255706
H         2.20244414239609    5.61375972059341    7.73128241413268
H         0.09937224115948    4.56978788172324    8.49370893515393
H         0.16774743544543    2.50448559415017    9.84360685326357
H         2.34606310019313    1.49330465770488   10.43434913251937
H         9.84860585283735    3.49880086605068    6.41095522421517
H         9.55731672602308    2.89413892366215    4.75745541863902
H         8.41560619570580    4.03591339855263    5.52839965320983
H         8.92695867845367   -0.41831779703076    6.84142829940759
H         9.90438332988928    0.37115098725986    5.56419565891302
H        10.13135992811129    0.80640617078710    7.27798034994737
H         7.00877658977474    2.15109006625945    4.26586710742393
H         7.72014375297103    0.51647332084426    4.33863362910202
H         5.92166919835596   -0.17261865291737    5.94742814839601
H         5.15342856764361    0.51448998516727    4.47603985190902
H         4.37269394236910   -0.39369081394834    7.91732749072886
H         2.20853058366326   -1.42447051607013    8.47870751184177
H         0.10283575640608   -0.39546237993293    7.70343833818267
H         0.16494490590632    1.66613846748913    6.34767421882490
H         2.34008064001946    2.68825231963056    5.76326548728635

