25
CSD_code = HOTRIS | q = 0 | S = 0 | Stoichiometry = C10H8N2NiO2Se2 | MND = 4
Ni        9.70559988103731    2.88261957061612    8.62580871488512
Se        9.98737440866079    2.71343748078179   10.83385930273899
Se       11.74920368129023    3.65322144675512    8.16381774209096
N         7.47031473228818    1.92114066271036   10.06137383930815
N        10.22830449525274    3.36469918230207    5.89164709706094
O         7.93069146460662    2.23513450503929    8.88305742694694
O         9.33948680574366    2.96361451690991    6.75661066495753
C         8.26066515394414    2.06089647951009   11.15363478022041
C         7.75168122500004    1.71754974500125   12.40701172356923
H         8.40020186426259    1.83680485910913   13.26096129845160
C         6.46575082440486    1.24419620226216   12.52724257663591
H         6.06748649287855    0.97592654502611   13.49247886440997
C         5.68229440925367    1.11538464999626   11.37937681148962
H         4.67090723256045    0.74866301931226   11.43313562472293
C         6.21272543503479    1.46213357490184   10.16267161548508
H         5.67360745483949    1.39151816942847    9.23031034344704
C        11.45751412120216    3.74738267898605    6.31566933819187
C        12.39706729033192    4.17228727601800    5.37516220076616
H        13.36843422533725    4.47139789308157    5.73708643269626
C        12.07589717520544    4.20003301800035    4.03791450278199
H        12.79772149180976    4.52621814174898    3.30661034727625
C        10.79966522924906    3.79866716940711    3.64029325802733
H        10.51095281769196    3.80623925410547    2.60258248832918
C         9.89946600845554    3.38716665071617    4.59016882249895
H         8.89528607965858    3.06176730827393    4.36501418301151

