55
CSD_code = HOTREP | q = 0 | S = 0 | Stoichiometry = C24H23N3NiO4 | MND = 4
Ni        7.00527618507384    5.30361464142858    4.08222074734004
O         7.55312734686659    2.27475998185296    1.36847654288029
O         5.05508917063240    8.21051935962992    6.24481716300541
O         8.36919282359761    4.99329627898596    5.22164020219980
O         9.11220673895482    6.08399525190629    4.70619819100190
N         7.49814999160124    3.71857138738911    3.08318223316894
N         5.88133026929807    5.97910529409271    2.69742290909188
N         6.23056994289187    6.49870242614700    5.41231763466931
C         8.34161098708605    2.62670600440098    3.56019285598762
H         7.92522915623151    2.22243453887273    4.48815141123033
C         8.27148832351340    1.60833428223472    2.39393136297548
H         9.26200130236255    1.34089904246990    2.01462918962548
H         7.73159259833777    0.69609015442022    2.66594117842026
C         7.12924951236662    3.45954879797076    1.86437163671331
C         6.34419868219013    4.28264255127890    1.03274997080475
H         6.17275890788120    3.93774325253595    0.02694085631623
C         5.78920991298248    5.45684682787994    1.45595120903050
C         4.93921454278316    6.31141497520303    0.54573757101176
H         4.08760333780669    5.73810113859517    0.17748657059708
H         5.51859922285281    6.63825660976236   -0.31843843990280
C         4.51869906383469    7.46803835874333    1.44826949213184
H         4.90671830979346    8.42781178466312    1.10408378130318
H         3.43640368908495    7.56019969229677    1.53978108174381
C         5.13527588964607    7.10883550903455    2.77980402776754
C         4.90864855962960    7.84237341119021    3.90456080467907
H         4.28190061516814    8.71717783876077    3.86204010171416
C         5.43052166666217    7.48565041008159    5.16926605211003
C         5.66017002836506    7.62695951985897    7.38988444151289
H         4.86850959457751    7.30291548966555    8.07338582835396
H         6.27661500422077    8.38407549367501    7.88189419074625
C         6.48619596553912    6.43439657559995    6.84261744021856
H         7.56057774775822    6.57623525338984    7.01228349616683
C         6.09723308489590    5.10956948397846    7.46325095634220
C         6.09630468895768    4.99093956221381    8.84860939241369
H         6.37306802986841    5.83904311741647    9.45884761600241
C         5.75362971973645    3.79419702433523    9.45133139708776
H         5.75642876115957    3.71551976293245   10.52880076832528
C         5.41304559848531    2.69824678343781    8.67674992906829
H         5.14614731634426    1.76338662201430    9.14740398400537
C         5.42428838163291    2.80646463583222    7.29694220620332
H         5.16539377346396    1.95309622746773    6.68693764016291
C         5.76226265029060    4.00499958095083    6.69346375663880
H         5.78130808372454    4.07953027683919    5.60238669372682
C         9.75888975789302    3.08022025204478    3.81573513055142
C        10.41249536032607    3.88269810989298    2.88563308928351
H         9.89170118003985    4.20325835998583    1.99301681756725
C        11.72598244795495    4.27293395517708    3.09598605942039
H        12.22332352586647    4.89750867685467    2.36805297435621
C        12.39625065531644    3.86370121120299    4.23565010559038
H        13.41903094484822    4.16802509301000    4.40036981464007
C        11.74831566447583    3.06600768889409    5.16508216382793
H        12.26662369435696    2.74962550168261    6.05786914827386
C        10.43836193086460    2.67480453168212    4.95650783833049
H         9.93164306367756    2.06379335911559    5.68773076952909
H         9.79453659623407    5.65487804904529    4.15925001403387

