49
CSD_code = HOTRAJ | q = 0 | S = 0 | Stoichiometry = C12H30Cl2P2RuS2 | MND = 6
Ru        4.00566174498780    6.00033533538414   10.03272185580292
Cl        2.29197547478999    7.65971431532738   10.25181764227552
S         4.43648630327777    7.00444005772682    7.91786647931208
P         5.56082940604843    7.41420131133295   10.89680926976142
C         5.41859048519426    8.48210137120782    8.36586616351155
C         6.43022168640893    8.18866892072866    9.45600431807316
C         5.05346545702181    8.87983223726031   11.86591265078932
C         6.96611933175200    6.79094424173827   11.87771586513926
C         5.67790327095108    5.98117254498115    7.05293484629150
C         5.97183289536726    6.51228967596662    5.66471761617941
H         5.87710736434678    8.85529080229768    7.45025317644247
H         4.66620264767630    9.19404209616339    8.71219606649311
H         7.18285715383983    7.47484697802928    9.10571864143265
H         6.93835972623700    9.10598561399840    9.76947071211367
H         5.88191814714312    9.58066400879229   11.96653521311138
H         4.73546485017063    8.54771218613805   12.85405555453580
H         4.20610797103897    9.35584211008780   11.37454961725834
H         7.39845600468995    5.93779397601998   11.35680821637821
H         7.71292986543035    7.57200556231423   12.01965795221293
H         6.59099398071544    6.45210509311744   12.84382228039597
H         6.56799807148501    5.91374920190385    7.67496709962315
H         5.22551792961058    4.99074673376500    7.01127851486590
H         6.63294920547996    5.82430375592370    5.14214447188396
H         5.05142111448500    6.61256769994684    5.09386254916441
H         6.45880978975863    7.48400407066512    5.70680335775535
Cl        5.72031162046199    4.34393011794650    9.81642582358409
S         3.57651513449151    4.99865496970525   12.14926776597871
C         2.59401593719876    3.52133875343051   11.70068114228595
C         1.58223050325590    3.81449185591339   10.61055607816580
P         2.45116914674629    4.58846235769422    9.16922739313409
C         2.95882946206948    3.12285076003257    8.20035961769123
H         2.13036872646142    2.42203193296257    8.09977843913492
H         3.27689119132961    3.45499860872646    7.21225516282101
H         3.80617974252852    2.64697000592852    8.69185704105861
C         1.04589348112319    5.21208030674388    8.18859624615284
H         0.61373185428784    6.06529001698620    8.70955618145119
H         0.29901971723229    4.43107918640653    8.04676274445562
H         1.42102419050943    5.55086250470209    7.22248002100775
H         0.82955832718140    4.52828439703395   10.96082421134441
H         1.07407686284384    2.89712756529093   10.29724207507324
H         2.13545126476335    3.14807444941378   12.61624099944220
H         3.34626290066091    2.80924262242945   11.35437818897793
C         2.33458896650287    6.02183315788567   13.01363645538790
C         2.04049413856263    5.49077451548778   14.40184341504896
H         1.37931199617627    6.17873730722740   14.92435819933404
H         2.96087769185138    5.39055312335275   14.97274623496403
H         1.55358248077415    4.51902791017238   14.35975879322318
H         1.44454967969954    6.08914333714018   12.39148313801902
H         2.78688510538105    7.01230033656968   13.05529450145969

