57
CSD_code = HOTREN | q = 0 | S = 0 | Stoichiometry = C20H30Cl2P2RuS2 | MND = 6
Ru       -0.00066835229336   -0.00040086120690   -0.00028979750529
Cl        1.90161019797652    1.04326959504406    1.00524485275519
S        -0.61830013885516    2.16066236560887   -0.81695488300465
P        -1.30771552838873    0.53231938871776    1.80064842694276
C        -0.63666341990311    0.93705416967942    3.45131243965807
C        -2.71469357574025   -0.54939867684964    2.23074097713517
C        -2.16503804962825    2.12979807558057    1.38640837537636
C        -2.31179520434438    2.23252518069799   -0.12047779233863
C        -0.91430134866763    2.17065072844914   -2.57535861567818
C        -0.04557375783047    2.94646288487020   -3.33438516144040
C        -0.19204186091488    2.99950083809263   -4.70845565489436
C        -1.21308772695580    2.29204863687639   -5.32290384273837
C        -2.07879186475718    1.52583590071794   -4.55980577880203
C        -1.93588187649866    1.45794005253172   -3.18424109084979
H        -0.36229642001083    0.01822728734882    3.96722954562873
H         0.25724630430908    1.54593994501843    3.32326295310484
H        -1.38266168642799    1.47873906132327    4.03275420641785
H        -3.33584302384303   -0.08018256914821    2.99339471959089
H        -3.29457598467608   -0.74650606098486    1.33020775793052
H        -2.32281738341907   -1.49498949283593    2.60440257413085
H        -3.14119313696462    2.17181872706760    1.87773933976427
H        -1.54019135624966    2.95077541446246    1.75525568274577
H        -2.75430320630129    3.17690354387989   -0.44031768995569
H        -2.87248667087429    1.38377744058409   -0.51528698488322
H         0.73681332507806    3.50247756302653   -2.83870454663735
H         0.48634198897803    3.59830729783313   -5.29798126959910
H        -1.33132945751372    2.33622213225223   -6.39537608124588
H        -2.87002877565421    0.96653717204902   -5.03595083128246
H        -2.58105776214881    0.81639902127667   -2.60614997648304
Cl       -1.90378472816745   -1.04542185566455   -1.00654794179972
S         0.61707115276076   -2.16090405521267    0.81757646631651
C         2.30993999678405   -2.23438106861621    0.11970627943419
C         2.16214544470955   -2.13155655927014   -1.38706943212822
P         1.30729317050243   -0.53264772477128   -1.80067444278588
C         0.63654226604953   -0.93546395944552   -3.45188900207900
H         0.36442339959998   -0.01594275659890   -3.96776474211545
H        -0.25865784188492   -1.54269016066695   -3.32486978833396
H         1.38189763362199   -1.47844720161441   -4.03293961161637
C         2.71591017111624    0.54749546137736   -2.22952879961637
H         3.33638825426774    0.07814713582390   -2.99265971761352
H         3.29588691818505    0.74281849839623   -1.32868728398597
H         2.32529637767717    1.49403446303532   -2.60213548125853
H         3.13778213921432   -2.17528101464959   -1.87928812789485
H         1.53558611342554   -2.95151233602230   -1.75533083517635
H         2.75179339954146   -3.17919490950645    0.43910051041307
H         2.87185676365673   -1.38620857866277    0.51402040196748
C         0.91458669332165   -2.17021660434560    2.57577172397133
C         0.04638562715582   -2.94552649537294    3.33591800903817
C         0.19379569351287   -2.99762488918995    4.70992794732517
C         1.21526921151613   -2.28975891880791    5.32318352250326
C         2.08047268861267   -1.52411280547046    4.55896136272902
C         1.93664185184731   -1.45715505422098    3.18345180889813
H         2.58140524330284   -0.81599172173508    2.60447984282527
H         2.87206560231850   -0.96450367962216    5.03414998281070
H         1.33403920210329   -2.33294475939644    6.39564191985947
H        -0.48433671820152   -3.59584740588879    5.30033089312830
H        -0.73636997403085   -3.50187580584781    2.84120268134459

