26
CSD_code = HOTWAP | q = 0 | S = 0 | Stoichiometry = C6H12CuIN4S2 | MND = 3
Cu        0.94858287168506    3.66722749789418    5.94443889649779
I         1.35090432344152    3.66787389451908    3.45351002261741
S         0.74675887310326    5.57983119408776    7.25528978643212
C         0.67442197892641    6.84651823964748    6.17748718493124
N         0.72451843560026    8.13731287429766    6.56820900132500
H         0.61115281799511    8.40266787808334    7.53035543325373
C         0.49540526442699    9.04490182484794    5.46334692366835
H         1.24662721430649    9.83786714632243    5.45279768124741
H        -0.49851544616118    9.50323066391251    5.52970167937292
C         0.61032656542632    8.10761291480768    4.24588418144360
H        -0.20758821824751    8.23804786729551    3.53433081645549
H         1.55939038278951    8.24207958066735    3.71570628172315
N         0.54778102391075    6.79302246166572    4.84897118398978
H         0.70744845308562    5.94395690482382    4.31308321708828
S         0.74674622996882    1.75461738287312    7.25531871324598
C         0.67440048137485    0.48792919498308    6.17751227479079
N         0.72452234811230   -0.80286296639643    6.56823761678136
H         0.61118159286160   -1.06822074495332    7.53038639353647
C         0.49540445802632   -1.71044992394211    5.46337655368954
H         1.24663795432402   -2.50340417641292    5.45280786144699
H        -0.49851649456797   -2.16877859840224    5.52973227420393
C         0.61030262744965   -0.77315573314991    4.24591657457778
H        -0.20761196050040   -0.90356645541634    3.53435929374949
H         1.55936715228979   -0.90757718744137    3.71572318570623
N         0.54774038792597    0.54142068354785    4.84900703045103
H         0.70741068244758    1.39049758184026    4.31310993777706

