49
CSD_code = HOVCOL | q = 1 | S = 0 | Stoichiometry = C25H16CoN4O3(1+) | MND = 6
Co        8.62059986749071    2.80121068664816    0.86818383518269
O         6.76919785352280    1.67218303376221   -1.85453780282704
O         8.71645332529650    2.24218223023228   -0.86558569246154
O         6.94280522601824    2.39388765431274    0.27745819274096
N         8.91770124384022    0.99398176810632    1.34876155546885
N        10.54027506618783    3.02299778271126    1.12284065689238
N         8.07966851368855    3.42073956328776    2.63641546990334
N         8.26734379767278    4.57328035561198    0.30466397677095
C         7.40428857970959    2.05964907035685   -0.91932593039431
C         8.05045947664940    0.00170377709523    1.43462857754552
H         7.00188357064253    0.26455699125673    1.39268473965874
C         8.45592248737189   -1.33147600643949    1.55028939918337
H         7.70403481115241   -2.10205519254287    1.60701198072364
C         9.79525326643769   -1.64603145283173    1.57301566042111
H        10.12726566456692   -2.67046605171303    1.64575600740267
C        10.73784530462902   -0.60685922649608    1.48570383051752
C        10.23491890369044    0.70281641356665    1.37119062224759
C        12.15253171565324   -0.78973300507221    1.48652311461148
H        12.53440640857428   -1.79535197017657    1.57344255235015
C        12.99987894355120    0.26425407336202    1.37291344840706
H        14.06826877023654    0.11203667925411    1.36841222898666
C        12.51287358886267    1.59888916810051    1.24560343872873
C        11.11980775191199    1.80878496571163    1.24840143709877
C        13.32841528273395    2.73329695533340    1.10181862914234
H        14.40250096837049    2.62924056006826    1.08554065019228
C        12.72917880071230    3.96582726033099    0.97646410695849
H        13.32151093530776    4.85935815439854    0.86144920533549
C        11.33625576331006    4.06991157243730    0.98994333395927
H        10.86671030594471    5.03882532073295    0.89241843383250
C         7.98957590197369    2.80473161615400    3.80245730856356
H         8.44556803636869    1.82769964751729    3.88209834397930
C         7.34324834712939    3.36447118055520    4.90710366959996
H         7.30293216293030    2.80793658988172    5.82965744096717
C         6.76227649238277    4.60806833787264    4.80738730133978
H         6.25065178403634    5.05533138568030    5.64583051192586
C         6.84041488836431    5.29220386609525    3.58327529802780
C         7.51514628140036    4.64382202720958    2.53012863707040
C         6.27593938387609    6.57924994515967    3.33916080214659
H         5.75832820572825    7.06779801455581    4.15036683286298
C         6.37325083399880    7.17492473334527    2.12365608707428
H         5.93434032995199    8.14543191416687    1.95028910763862
C         7.04603645872623    6.53909281228700    1.03835643687980
C         7.61766329339524    5.27185181364277    1.25877365709175
C         7.16918505386003    7.07759828753836   -0.25424535023490
H         6.73549977727303    8.03958866363333   -0.48109034265121
C         7.83593073875154    6.35255778195009   -1.21500837650573
H         7.94311358935606    6.72937721767485   -2.21940993321135
C         8.37184450694826    5.09962511697479   -0.90204910137144
H         8.87909773981195    4.50659791669403   -1.65132398977271

