57
CSD_code = HOVCIG | q = 1 | S = 0 | Stoichiometry = C24H26ClFN3RuS(1+) | MND = 9
Ru        8.43931358562089    1.82982737135575    8.33363586850384
Cl       10.20740722773126    1.00630423610463    9.60782630542059
S         9.25861125670205    3.95897538409493    8.89363234381875
F         5.22055728544159   -3.73407126650532    8.46231764604743
N         7.49119097130412    1.99133259930498   10.07989994341751
N         7.86491409860164    3.03344505048840   10.88924639492572
H         7.50756562492522    3.02323595905619   11.84436057353918
N         9.07840776197634    4.91850834174806   11.40128305018476
H         8.79040789258095    4.74632391553106   12.35931182603288
C         5.53718045456505   -2.53105956924929    8.95322866796806
C         6.87441096508029   -2.18011783994846    9.06490806907031
H         7.63633357480497   -2.89256022342385    8.79111257195625
C         7.20067538818174   -0.92860031828929    9.54868129678726
H         8.24051885105492   -0.65616695810967    9.68998318786555
C         6.19136763044159   -0.04024997147883    9.94090296183174
C         6.54421557279118    1.23656212707880   10.53208482946333
H         6.00755958746971    1.53108369301949   11.43324452200942
C         4.85315293845260   -0.43520010421899    9.85519098921397
H         4.07438842048140    0.23958323552203   10.17649827008031
C         4.51985308038425   -1.67309856500204    9.34377982196602
H         3.49253782015806   -1.98900004442361    9.25832995515975
C         8.73358229146712    4.00136747735684   10.49477596697640
C         9.96427601084966    6.01207097645064   11.28720147936210
C        10.21246738496174    6.66907290211354   10.08928515578515
H         9.71698545195829    6.36436992894940    9.18343838891805
C        11.09008253643744    7.73970997418656   10.06875712974641
H        11.28191284849398    8.24632384122908    9.13610109042144
C        11.71171057853678    8.16496703267249   11.23000677864789
H        12.39507203655951    8.99870626501245   11.20448693588928
C        11.44556087208739    7.52179628084943   12.42869840459545
H        11.91851998735201    7.85240553290647   13.33984038551477
C        10.57196343926060    6.45250525144488   12.46110525162207
H        10.36653741448786    5.95029521408334   13.39563705631971
C        10.70067384597092    0.17512082999037    6.14876178635316
H        11.09416038644738   -0.16093902226078    7.10922283230675
H        11.39319221866080    0.90295983503296    5.73479586355454
H        10.65279695749950   -0.69022688160806    5.49048477066027
C         9.34004148102924    0.76421910953335    6.33395668738259
C         8.23116782632469   -0.08208999650983    6.61645653993069
H         8.38628236058948   -1.15284646662248    6.65411461209212
C         6.95523953236874    0.44116775209240    6.77372164918541
H         6.11265039937783   -0.22375332041721    6.91989341218715
C         6.72176109360861    1.83961602331049    6.69364303891989
C         7.79692084771343    2.66597461471407    6.31703343845014
H         7.62576855168233    3.71229502659934    6.09074716611545
C         9.09345300969871    2.12959499864205    6.13274556410336
H         9.89115618698701    2.77523758949299    5.77829071508056
C         5.31859349770119    2.37969298011746    6.83162433476841
H         4.72303989137089    1.63317652587650    7.37005120123705
C         5.28710176024634    3.68698654951968    7.62576912171482
H         5.68630260205426    4.51270146888786    7.04299839763449
H         5.87422418382244    3.59189962075099    8.54175817600893
H         4.26349040879217    3.93277896215765    7.89425829782571
C         4.70823591084145    2.57259468101292    5.43915767077582
H         4.69941719276941    1.63399218693380    4.89047921998029
H         5.27791353241296    3.30110208849296    4.86738882936736
H         3.68587548087453    2.92859711417353    5.52995355542864

