60
CSD_code = HOVGOQ | q = 0 | S = 0 | Stoichiometry = C33H21AgN2O3 | MND = 3
Ag        5.84642729462530   -0.30126462757276    9.26883119056345
C         5.10783022243260    0.52233393101152    6.98530487900857
H         4.22951817680448    1.00044523668817    7.40127971535127
C         4.96716521912762   -0.65284974666936    6.29353775307418
H         4.00480439082921   -1.14220407727941    6.25260010779721
C         6.05511779978658   -1.20711950175818    5.58765924808294
H         5.92408120594013   -2.14380751874227    5.06764484091397
C         7.24032290745544   -0.54071453174337    5.52839101683991
H         8.06494881735041   -0.92911597811856    4.94902485903220
C         7.42848750003215    0.68624465189842    6.21699600884151
C         8.62095509146679    1.39540735848093    6.12276950120871
H         9.41974335466590    1.00338291492470    5.50922947796873
C         8.81910068434035    2.58799337877422    6.81153733495315
C        10.04194677436017    3.29915772646869    6.70776353134131
H        10.79836951102202    2.91525848853774    6.03885511521245
C        10.26303350517250    4.42607539658321    7.43692213033325
H        11.19604773444125    4.96291954494521    7.35390640074219
C         9.27663507223665    4.88794566785860    8.33084436008969
H         9.47839405616155    5.76217758507128    8.93214423256370
C         8.08420345943433    4.23959530102213    8.44794246482322
H         7.35201916047198    4.59674912818251    9.15607000003748
C         7.79077626400603    3.08896312337846    7.67087684333072
C         6.56623006312953    2.39920760226248    7.74709993297547
C         6.36304152570989    1.21084107596193    7.01688510286497
C         6.16165984602975    0.47515604210647   11.86710487604559
H         6.48596522686762    1.45507443404817   11.53847859075383
C         7.07776052686613   -0.38776434127573   12.40360305126435
H         8.12521041827375   -0.12429206837561   12.41578781339910
C         6.67084314290175   -1.61397856993073   12.96846582236047
H         7.41629908275669   -2.29247717277127   13.35322143395877
C         5.34781019094995   -1.92180694679897   13.04342514482182
H         5.02022434853758   -2.84396669437955   13.49943270086849
C         4.36045936976434   -1.04947792316647   12.51557763758541
C         3.00640632967318   -1.34511127684984   12.61995026165454
H         2.70372915518237   -2.25649424969908   13.11514321485343
C         2.03270326385219   -0.51027402466284   12.08189603287347
C         0.65493768371049   -0.82910763736739   12.19161791562177
H         0.38127680303587   -1.71676541393012   12.74291627555167
C        -0.29582277543044   -0.04941155850095   11.60988040541511
H        -1.34310943739190   -0.29753137441245   11.69622182536792
C         0.08747575596485    1.08198932199294   10.86283245868330
H        -0.67323148468975    1.67321353520928   10.37410715561603
C         1.40014979407507    1.42667067063966   10.74446385188421
H         1.67091034020362    2.28315153773863   10.14544102792771
C         2.42267243308312    0.67041845406225   11.37466389741829
C         3.78969039574278    0.99718859362218   11.28845289203123
C         4.76755570321184    0.15727659684861   11.86170418391349
N         5.11630468293598    1.88895265685152    9.54147867219684
C         5.52570762977587    2.83231802881375    8.69500732907925
C         5.00328217142128    4.12306621775041    8.74945671094738
H         5.28856688239720    4.85697600065798    8.01219111582946
C         4.11275121409340    4.43298987275801    9.76502111681838
H         3.71928026993757    5.43517244547942    9.85413295396002
C         3.72813100548134    3.45123667610391   10.66314047003786
H         3.06222961104708    3.67289962591504   11.48213207249330
C         4.22101606601633    2.15787593190179   10.49079518746394
N         6.14131178122468   -2.92401192943800    9.91970986670189
O         5.00351794244578   -2.45403512760158    9.73360358863296
O         6.29485468815480   -4.04111811938690   10.33670192192526
O         7.11977015093719   -2.19442434415990    9.65962447613369

