51
CSD_code = HOVGUW | q = 0 | S = 0 | Stoichiometry = C24H17I2N5OSZn | MND = 5
I         1.95625570679467   -1.01677430322571    5.10569237278162
I        -0.90886260404224    0.88773380292177   10.10965195982274
Zn        2.95298027682380    3.46841777217044   11.22853652359030
S         4.24461260728357    5.33711719203830   11.83865818911156
O         1.62746953195833    2.46259192712410   10.24416103324829
N         4.24546119035768    3.27504286451047    9.68981267897346
N         1.42203143655509    3.54152503022026   12.70078755751659
N         3.47921521658640    1.84996492986468   12.48403008152103
C         2.93564882269244    1.76596459710740    8.34342646910108
N         6.66573752327952    5.50509845254284   10.94946808908943
H         6.60071445207671    6.20876411279084   11.67412458969558
C         2.95108217117622    0.97174825743781    7.18675906429484
N         5.40759527233164    3.94813258938098    9.80825247841966
C         1.78215089020149    1.76157953924874    9.18092585872383
C         0.73177246104599    0.90231199986150    8.78714561086108
C         4.08919443982599    2.55861539980695    8.62580829275246
C         1.88582117874201    0.17250563391892    6.85699042306952
C         1.26025729215469    2.32355276263352   13.22186934278463
C         5.50414546229024    4.83539166504293   10.74959048432767
C         0.75399482597814    0.11981514565613    7.66571379028303
C         2.46315128771214    1.47596387472539   13.26482892211274
C        10.45222409117771    5.26890759136429    9.20993545616844
H        11.43819752780390    5.21945288911013    8.77341700593859
C         7.90468815825140    5.39248273856544   10.33440673524967
C         4.59506881110659    1.14040159016283   12.47099896199562
H         5.37760606545421    1.49798423565768   11.81504861542785
C         4.77163074148107    0.00557862063996   13.24540716630891
H         5.69719511200464   -0.54539921401811   13.20406242258840
C         2.56391523534464    0.35180442982828   14.08419206308066
H         1.75100615730226    0.07039358638758   14.73319633803408
C        10.17615213424840    6.19053947985239   10.20687715253654
H        10.94714336986127    6.86407018384499   10.55112386695023
C         8.18620373299544    4.46750302884440    9.33170008544055
H         7.40517670291483    3.80680774014999    8.99763347437627
C         8.91559868971854    6.25384988870890   10.76588958589776
H         8.70302013351432    6.97448406413478   11.54346952185379
C         0.39223799700810    4.36571185757800   12.63881245777328
H         0.59314827664723    5.34034487083207   12.21543284766014
C        -0.87400020329434    4.02115485574546   13.08675575854912
H        -1.68950193452428    4.72193103995487   13.01134792711700
C         0.01875187553545    1.89007084405631   13.67973292700649
H        -0.11685412044337    0.88811370014672   14.05204935084947
C         3.73101892915398   -0.39153264304388   14.07054817034058
H         3.82779801735879   -1.26536815711252   14.69726305278000
C         9.45233349507176    4.41365833611218    8.77892507547672
H         9.65930985531227    3.69298653120664    8.00131946844799
C        -1.06369069490858    2.75036810887533   13.60196147324594
H        -2.03959907714449    2.42563340623472   13.92850699526637
H        -0.07997609047639   -0.51762219428384    7.41575580103460
H         3.82820118465394    0.99628515424943    6.55695473108277
H         4.89156638503158    2.55354019044923    7.88684169942931

