98
CSD_code = HOVJUZ | q = 0 | S = 0 | Stoichiometry = C35H56N2O4Ti | MND = 6
Ti        7.99128737116449    3.28715990132412    9.60346362498776
O         7.65683551846656    2.51203514749277   11.13906213386354
N         9.41438081742348    1.71123007754907    8.68500117661810
C         6.48591082760687    2.31502948779471   11.84751203371976
H         5.65314041393833    2.11665894311221   11.14025863311343
O         9.41271175442789    4.10270713454748   10.24702204391603
N         8.95765312268584    3.92659797305930    7.53698314422638
C         6.14503872563636    3.57206906456216   12.66488465112721
H         6.87462361182151    3.70122632446190   13.46305136152186
H         5.15088636287911    3.49401616466416   13.09991320453291
H         6.19230178678756    4.43599235334684   12.00137298342279
O         6.85263786047514    2.19432786837483    8.67960923449246
C         6.62611009720130    1.08909731323394   12.76388204323868
H         6.80829409099748    0.20231202107559   12.15993088204305
H         5.71914110300839    0.94423009932826   13.34555470233162
H         7.46708943581887    1.23475691370858   13.43967655122637
O         6.85564972846955    4.69495323189244    9.50287405604122
C         9.59198298301897    4.73178663834242   11.46239536653783
H         9.07982311350317    4.13642929542713   12.24814303062029
C         8.97395491824193    6.14045185170545   11.43714736766117
H         9.55639702465712    6.78883975992245   10.78281136185230
H         8.95112851688854    6.57259749379817   12.43496998878359
H         7.95948047046368    6.06489796767069   11.04491926315751
C        11.08789190558166    4.81958626505990   11.82011170049824
H        11.51572488698562    3.82132067523884   11.89250774762101
H        11.21934433103887    5.32700047621981   12.77250645675539
H        11.62202082793026    5.37211765841930   11.04843175744892
C         6.63629114753640    0.92991410940559    8.96637106717665
C         7.67190991850697    0.06553316104670    9.37767005297795
C         7.39707838512760   -1.25810988846397    9.69820054312621
H         8.22599688412149   -1.87098787671875   10.01944551807750
C         6.11970792759961   -1.79089267200701    9.62289250653969
C         5.11136555885609   -0.94426148433155    9.16898128313275
H         4.10119794084380   -1.31484641100643    9.06776825761624
C         5.34205573456659    0.37393659581838    8.83256940206947
C         4.21755170314196    1.23878239391306    8.33690916351899
H         3.68113033123203    0.74398101602735    7.52784157788780
H         4.61315266683034    2.18643014573284    7.97693787880717
H         3.50518024161836    1.44102146094788    9.13725628846272
C         5.78640343668794   -3.22522872639445   10.00372590578143
C         4.76524468634839   -3.21005236463763   11.15003054227198
H         4.51532472689384   -4.22673356269713   11.44764752393201
H         3.85016968203356   -2.70563019269885   10.85343534123733
H         5.17724862349492   -2.68782143300664   12.01096197578991
C         5.18969402597343   -3.94938521682622    8.78877885704201
H         4.95879606280407   -4.98264973614345    9.04098013113010
H         5.89906772307052   -3.94442538524962    7.96380304039139
H         4.27559314154930   -3.46802079531476    8.45358445340654
C         7.01350343087730   -4.01267797366234   10.47096405997479
H         7.46136891765929   -3.55217090482667   11.34834713116794
H         7.75951002527020   -4.07718311194402    9.68222537094362
H         6.71604268919817   -5.02545343293070   10.73671249842189
C         9.10286734110493    0.53965797365427    9.50292811518118
H         9.30516553871138    0.81221928992731   10.54924573104415
H         9.77370339719560   -0.30011308590604    9.22947861349314
C         9.12118480716139    1.48332772649022    7.26981543378572
H         8.27994575651713    0.79242527677571    7.18673046820907
H         9.97834166000014    1.00676658727748    6.76976056913898
C         8.74782106424479    2.82620462782497    6.60184540764261
H         9.32792470540029    2.98177536850690    5.67544291631461
H         7.68507467955576    2.81614555195937    6.34381222946849
C        10.82381172783098    2.06771793574707    8.85315742906143
H        11.45529806669672    1.16181101229283    8.77648204814832
H        10.93728761821454    2.49864626473019    9.85113698179728
C        11.30371823985810    3.06998106924024    7.80407194866051
H        11.43881994894057    2.57012136659122    6.84236651099249
H        12.28676451912061    3.43795798956202    8.10672350227447
C        10.37828921131041    4.27301770668055    7.63272487034627
H        10.48676097940948    4.93416753474145    8.49580010572656
H        10.69307996963335    4.81582003550472    6.72144084289287
C         8.22879849202447    5.12683783207348    7.11335666034647
H         8.50569791852288    5.92874546130971    7.81152318029591
H         8.54407100140027    5.42431207612656    6.09563863964884
C         6.73339484049095    4.96806568393268    7.15268018240801
C         6.12268707772657    4.80145372533576    8.40924400117894
C         4.71279108135813    4.79690215706858    8.45981073418594
C         3.98596006953839    4.88582470417105    7.28824349753402
H         2.90830711298826    4.86072669817638    7.36517394171542
C         4.58368055704179    4.99515332232227    6.03417407502682
C         5.96923330731741    5.05038183697579    5.99738724602854
H         6.48940853474159    5.17028655183361    5.05887920544745
C         4.03580936653195    4.68000028728204    9.79298149817721
H         4.40383508136735    3.79533450948308   10.31214228388365
H         2.95642439555416    4.61070549050997    9.67832712847764
H         4.27117058490496    5.54785301396071   10.40990564380336
C         3.71180497785772    5.04996118035803    4.78893161831281
C         2.88115099183908    3.76128839457127    4.70655362198518
H         3.53778138099312    2.89481912735446    4.66544083837761
H         2.25965751026014    3.76869311007840    3.81309510942194
H         2.23404328609630    3.65448022978475    5.57226097089744
C         4.53092078645817    5.17117370307320    3.50093551487910
H         5.19340184036390    4.31751252827140    3.37806141963965
H         5.12095904443008    6.08467267313763    3.49822964149826
H         3.85958005189005    5.20218062365624    2.64477617011340
C         2.77819087289402    6.26521693585082    4.87529024877433
H         2.15620945349114    6.32718604305013    3.98433997111403
H         3.36127544499261    7.18016749937571    4.95529511846053
H         2.12676848705454    6.20111855391999    5.74192124194661

