98
CSD_code = HOVKAG | q = 0 | S = 0 | Stoichiometry = C35H56N2O4Ti | MND = 6
Ti       -0.50628926557124    3.04862458256085    4.17681060128836
O         0.25055777007831    4.41763626199828    3.39587701222013
N        -2.10664138294828    2.19785907130219    2.55824646699411
C         0.24932935750053    5.79034663469772    3.20363249648843
H        -0.75740611865585    6.19887504893155    3.41721037736534
O         0.63681106018151    1.91886605439561    3.47107225363003
N        -1.75319593398808    1.05825073973579    4.77287987229391
C         0.59495584940800    6.11472572208655    1.73889647139347
H         1.53603011149952    5.63403694841648    1.47595523449101
H         0.69096116601360    7.18899006318968    1.60345314847724
H        -0.18659074617158    5.74925673404134    1.07601980988909
O        -2.06210218715036    3.90222380894061    4.51996186024206
C         1.25199466936633    6.48852808387516    4.13624110727763
H         1.05404738461810    6.19673004151205    5.16508978763944
H         1.15632301683124    7.56833519786000    4.04506093127298
H         2.26664048085478    6.19779517573929    3.87198170465004
O         0.07850080933049    3.11807479803650    5.89181954004300
C         1.93677522884258    1.95893537731855    3.00545173268199
H         2.38664123253134    2.93657883305153    3.26742774835075
C         2.00764964903694    1.83437518782398    1.47064540136923
H         1.65301762867025    0.85639418142316    1.14676266226639
H         3.03552488393822    1.95695080383098    1.13672089261486
H         1.39615000850480    2.61269313720188    1.01491393471705
C         2.76997431884970    0.84027719447099    3.65559780123576
H         2.68364468613752    0.90459276426129    4.73855535628943
H         3.81578239876160    0.92693345917229    3.37041324406263
H         2.39717978223468   -0.13183937789951    3.33560012619127
C        -2.72079266538775    4.76492225067309    3.77992190955606
C        -3.37640615297949    5.88728461607921    4.35888489335600
C        -4.04767190349523    6.76615054631139    3.52884016698841
H        -4.54145630298451    7.62960203318210    3.94486249093430
C        -4.12469155294650    6.59178569342118    2.15097866275584
C        -3.51552982644680    5.48089188438061    1.59768740118842
H        -3.57552451930754    5.31407504695632    0.52945398869083
C        -2.82441826543408    4.57048063272412    2.38273939561362
C        -3.30701172549777    6.09674258672411    5.86881770008621
C        -3.90913478055260    4.87329432807256    6.57531611155483
H        -4.93108567666502    4.70469060746967    6.23835034030489
H        -3.91884028359902    5.02732113264429    7.65290620574178
H        -3.31078559552555    3.99253829815460    6.35552546353106
C        -1.84053553421499    6.26063242351301    6.29450894604421
H        -1.25972607041093    5.38363430806791    6.00395725326954
H        -1.77716304758508    6.38082216504878    7.37509499319049
H        -1.41105818547969    7.14252232841835    5.82229078992406
C        -4.07861389061499    7.33678858248047    6.33341964591059
H        -3.67180728516920    8.24294478592040    5.89085584587608
H        -3.99356630145219    7.42593473727326    7.41492330567103
H        -5.13479916142977    7.26024872721707    6.08461271472055
C        -4.86834058832880    7.58402768598571    1.30521957495437
H        -4.79407459989435    7.32687507018322    0.25148091111927
H        -4.46463756026772    8.58595938865304    1.44657088939759
H        -5.92263456530884    7.60888418768634    1.58099896848757
C        -2.17662062460090    3.38187129257970    1.70692996651535
H        -2.74284422995124    3.15746390356378    0.77997276199275
H        -1.14374310981160    3.63300160564277    1.42235313549749
C        -1.56342010814907    1.05805615967563    1.82839789331009
H        -0.51676491024112    1.27057229028037    1.61223576946316
H        -2.10571932352281    0.92092704402563    0.87137236381814
C        -1.66827651438070   -0.24245902533635    2.62799916079301
H        -1.04451695185384   -0.99604597921960    2.14168733297686
H        -2.69449190303649   -0.61577105487154    2.59248215133890
C        -1.21936919989276   -0.12205052960631    4.08540924138038
H        -1.54273709569678   -1.03854370679027    4.61427935947122
H        -0.13020901825088   -0.05610379804303    4.13445408644385
C        -3.40466099618660    1.84435486123952    3.12308945663394
H        -3.95581397542541    1.17282217685696    2.44638810892617
H        -4.00498113890878    2.74900444029300    3.23640842667478
C        -3.18295976508358    1.19952302233826    4.50705681446320
H        -3.60989502484450    1.85178478659026    5.27213312425139
H        -3.69124192406725    0.22306857150425    4.57884134635663
C        -1.52812262646892    0.91393395753455    6.21200525432671
H        -2.02350389282015   -0.00214526143281    6.58642187231122
H        -1.98173145194432    1.78442298710038    6.70586063353898
C        -0.07385043850798    0.88224684009208    6.59485135270984
C         0.65282728451953    2.08745619846837    6.49024190607201
C         1.93040682323440    2.15443644004205    7.10529631816039
C         2.46763915396363    0.98805080838021    7.62738539683913
H         3.45217114595074    1.00461437095154    8.06691080762774
C         1.79522920519873   -0.22835241721000    7.62338038790310
C         0.49988413618232   -0.25494693739628    7.13668553415944
H        -0.07753066070499   -1.16876795219743    7.19225664589323
C         2.44254555161765   -1.45556450381461    8.19571765112228
H         2.43186398524111   -1.41802094022906    9.28564019238758
H         3.48007818446631   -1.52864129059584    7.87515884486450
H         1.91536607002645   -2.35321548578279    7.88175115418255
C         2.66457884347322    3.48571815166459    7.20939598378547
C         3.02585368447811    3.96849862905512    5.80107489463288
H         3.48074756934524    4.95676462222197    5.84868553963642
H         2.12710785221953    4.01363323641423    5.18498847421291
H         3.73744473781819    3.28276603582622    5.34389392312415
C         1.73895125385233    4.50542070405105    7.88884614173302
H         2.23193792292379    5.47353612483024    7.95880003340138
H         1.48609852344270    4.17120411621658    8.89361888876453
H         0.82067786692474    4.61920157622272    7.31834265228839
C         3.95297681463580    3.40028720789715    8.03542865670886
H         4.68402265593655    2.74600213462820    7.56610823125149
H         3.75132851112711    3.04575363339711    9.04367199158818
H         4.39380729004423    4.39273037772159    8.10887399215679

