39
CSD_code = HOVMIP | q = 0 | S = 0 | Stoichiometry = C15H17I2N3PdS | MND = 4
Pd        0.95000588629942    2.19882044746887    2.65820331550568
I         3.48728006178606    2.78135412528485    2.50286582467307
I        -1.57690382596670    1.58087186622688    2.82862865320519
S         1.62789794269014   -0.08752912344237    4.85429349320563
N         1.10661152001847    2.29522959259731    5.55088132841042
N         1.12750565307727    0.76311053712780    0.08141060226611
H         1.30269015034629    0.53510592691250    1.06815728633462
H         1.29322504174005    0.07012250973678   -0.62455125532733
C         1.22030899155332    1.53708368481925    4.46350806251013
C         1.33196435762695    1.64426233037912    6.75384476775886
C         1.29304403942925    2.13732741302219    8.05474872830825
H         1.06298064491118    3.16843525791564    8.26104715405841
C         1.55669768076803    1.27846179582254    9.10329524707243
H         1.52624080291103    1.66031112507286   10.11208408315953
C         1.85919151881130   -0.06194613869549    8.88883927095386
H         2.06004450589805   -0.70800928216537    9.72872275186120
C         1.90385811720287   -0.57047322947998    7.60663472694103
H         2.13610415507166   -1.60572928758101    7.41539056285766
C         1.63942113667855    0.29070565854080    6.55629605426016
C         0.76111325634959    3.71584676373225    5.39833711180077
H         0.65410905484527    3.88349826995682    4.29643597780473
C         1.89801486913300    4.60930703267170    5.88597818767762
H         1.66547402429806    5.64433609210363    5.64921700750505
H         2.82477789857762    4.34365787424428    5.37992784102975
H         2.05377159752398    4.52822862730342    6.95733843693559
C        -0.59047935467797    4.02062970751311    6.03778160396342
H        -1.35153902472541    3.35269463442336    5.63759271738821
H        -0.87546991938611    5.04232773239032    5.80054840098395
H        -0.56823912267279    3.91178693376052    7.11769308683972
N         0.65967260608056    2.89983924664857    0.76560157283040
C         0.80214907515144    2.03348891035760   -0.24720674469927
C         0.60495554676855    2.44667112618105   -1.57452352557392
H         0.72447419877510    1.73339580048380   -2.37436949939432
C         0.26173623417832    3.75510813136975   -1.81831505463238
H         0.10459440379251    4.09508198425695   -2.83039404531503
C         0.11779395842532    4.64081237699774   -0.75133650943047
H        -0.15024335195573    5.67137884758115   -0.91166377655046
C         0.32728998889889    4.16424057106491    0.52304572202275
H         0.22897567978113    4.80995412740740    1.39471083080868

