69
CSD_code = HOVMUC | q = 1 | S = 0 | Stoichiometry = C23H34BN7OPRuS(1+) | MND = 6
Ru        8.10970018413319    5.81039501189370   11.33278196694724
S         6.52451692565297    3.25473499186465   13.03923307086751
P         7.35584007627423    3.62635625324370   11.14179525828097
O         9.31865839642173    4.41247455572853   13.41756165916288
N         8.80114120344272    7.76027284663100   11.44626817671989
N         8.78384403542963    8.52618388591053   10.35229050926508
N         6.51002542756897    6.68196328264827   10.28331484061241
N         6.76784735208546    7.57508291077879    9.32431476881222
N         6.88840718960163    5.94935371048268   12.99563549019138
N         9.21261980076228    5.78617265995574    9.59301853307214
N         9.03316778139715    6.75321722640768    8.68940991957772
C         9.60887570986869    5.20004748743654   12.41157283787254
C        11.03987067785746    5.60167377993885   12.25255483365453
H        11.39336983338312    6.11628151022036   13.14923587241954
H        11.17807929723234    6.25666963931447   11.39635485989118
H        11.67061974100663    4.71871560183204   12.12276610473406
C        10.28476978921709    3.94167092294252   14.35874960021978
H        11.06052320875653    3.35346871395351   13.86461120147169
H         9.73806005346116    3.31191478251667   15.05784861896929
H        10.74627296102758    4.77124813000285   14.89736667190581
C         9.34463750079905    9.71258615124460   10.61934343154034
H         9.42557462237318   10.47118404921510    9.86865518583556
C         9.74241306779084    9.71640715846188   11.94081323119327
H        10.22280417837205   10.50599523992239   12.47898841131837
C         9.37944440148196    8.45992275812884   12.41828204210124
H         9.50188837085160    8.05248300890377   13.40533340014376
C         5.62371144414742    8.10131815213619    8.86806220130466
H         5.62068625054929    8.83760353116832    8.09130307330944
C         4.57874792154037    7.52999094255340    9.56420704940714
H         3.53242915110058    7.72198308724108    9.45361243605623
C         5.19145181888643    6.64777933436011   10.44963313936026
H         4.72647618027341    6.02076002964469   11.18920386936883
C         9.80540797850248    6.52451984908299    7.61834517979170
H         9.80477418930613    7.18946708427502    6.77972952621000
C        10.51645068056134    5.36350320523301    7.83838675806740
H        11.22412931928568    4.89431393995480    7.18804749929801
C        10.11124474412702    4.93976051189406    9.10159259867422
H        10.44538300075138    4.08992862204114    9.66441448607178
C         6.30989286143458    4.90266750046370   13.60676764306555
C         5.48513912590844    5.04019568396478   14.72407915337178
H         5.06805224909820    4.15059085023416   15.16724275225155
C         5.21420917340613    6.29539331511359   15.22371652014428
H         4.58331828663259    6.42385761843874   16.08815182138214
C         5.76329382126287    7.38700204773081   14.56075715745038
H         5.56528064078465    8.39569929357075   14.88357637913524
C         6.57670008834528    7.16467139065581   13.47031557650093
H         7.00011339918283    8.01050484162648   12.94646849086438
C         5.86341617544212    3.27489929294742   10.06450684409355
H         5.12755582318712    3.98694965185186   10.46427827747111
C         6.13739203446983    3.66312338842677    8.61310894487945
H         6.67742098800575    2.88192325001274    8.08690181449102
H         6.72099656859471    4.58373221031745    8.56152838699514
H         5.19667441948706    3.82860348558304    8.09178941061415
C         5.26024386897589    1.88075547706977   10.19094699952831
H         4.29871214821480    1.86329970695772    9.68094745764510
H         5.09313928491073    1.62005396664440   11.23491774322819
H         5.88974069476777    1.12475234353379    9.73129689983599
C         8.55921823294809    2.18715267207002   11.01077832004419
H         9.49608541117031    2.62048228769917   11.38758924767819
C         8.77954348546992    1.76953603986220    9.55734597739730
H         9.69819612688026    1.19020655843592    9.48075302579997
H         8.86487706950323    2.63176592329137    8.89971388251562
H         7.96722186619932    1.13997088183519    9.20652128077420
C         8.21938030828628    0.97545405439545   11.87498853448310
H         7.25871982540746    0.54709901208065   11.60632106756833
H         8.19916324145641    1.23097546912213   12.93149838444415
H         8.98174463718199    0.21255955152359   11.72697064539118
B         8.20681125479476    8.00159332205361    9.02226428413416
H         8.25938242329729    8.80942435335321    8.16761876311712

