74
CSD_code = HOVMOW | q = 1 | S = 0 | Stoichiometry = C28H35BN8PRu(1+) | MND = 6
Ru       13.11133871933823    9.85233822046434   10.41299013272983
P        12.59974982424022   11.51040505267079   11.93839969137856
N        11.87944894176113   10.47766073116986    8.87481771300019
N        12.35921089239495   10.55905331780999    7.62937649105195
N        14.58822305202994   11.03489548407198    9.50415846687370
N        14.72839414701347   10.99557278417101    8.17595392235108
N        13.68763460082977    8.37085798116551    9.06561471673116
N        13.93501882742418    8.69124603774947    7.79227515361510
N        14.60793896376938    9.41912231857500   11.83975328281642
N        13.97039736055903   11.36287557256036   12.94819300407212
H        14.07352207330944   11.94311283644336   13.77292611346526
C        11.81525282287304    8.63244264629619   11.02036121294625
C        10.94051500916160    7.69440312360369   11.22275394381232
H        10.82752503546628    7.26479612505435   12.21399258271211
C        10.02130677252992    7.14109393005273   10.21968946688722
C        10.18872960247503    7.42064462833818    8.86390065115991
H        11.01569486764475    8.04187154051266    8.55084821958819
C         9.31471506653551    6.89942015157679    7.93122892291573
H         9.45448843437076    7.12327307754056    6.88415482566715
C         8.26474393151825    6.08953248993888    8.33504615225763
H         7.58334473171674    5.68173105627520    7.60464063936250
C         8.09726528412783    5.80132678168977    9.67897560413556
H         7.28478362614049    5.16667751909245    9.99881119741725
C         8.96886857036902    6.32122469547530   10.61841746662146
H         8.82900017881794    6.09150216352922   11.66497668414426
C        11.39226429570806   10.97331164445427    6.80006125839603
H        11.57658772138225   11.10366387411570    5.75366185195099
C        10.24254960413228   11.16683795042256    7.53768314993422
H         9.28637335064194   11.49227861178213    7.18654345916990
C        10.60129312299212   10.83876299638677    8.84179879032812
H         9.99928790929495   10.83450106186691    9.72923900092557
C        15.78073486606075   11.73547901126370    7.80253669770366
H        16.05510634411510   11.83203389331823    6.77259831981428
C        16.35136055993829   12.27471478868965    8.93579472198871
H        17.20693875192286   12.91316265984905    9.00168809519436
C        15.56358143247833   11.80093426050714    9.98173530640996
H        15.68143411887944   11.98742324936062   11.03315876066101
C        14.17116795529562    7.57964510437341    7.08288922900052
H        14.39430004855090    7.62488670821859    6.03696490386514
C        14.06738774718434    6.49580152712135    7.92962786518383
H        14.19267581099687    5.46126930530863    7.68955253924905
C        13.75296544890364    7.04688590584866    9.16910648433888
H        13.55022958692028    6.54252706256767   10.09572300457353
C        14.79465569549101   10.27419960255828   12.86216531340895
C        15.82475262912659   10.09485005763248   13.79498243609230
H        15.93178589318888   10.79900174038809   14.60547309257126
C        16.68682312405967    9.03114612541049   13.65816887268152
H        17.48613181473944    8.87848711033978   14.36541742725147
C        16.50537585944479    8.16504983930717   12.58471482462616
H        17.15997173908820    7.32437269104850   12.42948493194343
C        15.46357940183730    8.39925911243753   11.71398009812114
H        15.30288151410741    7.73858392078406   10.87405803692005
C        12.72214710329448   13.33013712387631   11.53478105846802
H        13.79024533536783   13.47329595946210   11.32097881581169
C        11.94266941865175   13.64863942860714   10.26247666241205
H        10.87617136252348   13.48660303849748   10.40038479717234
H        12.28295415692687   13.02470063226736    9.43789389107748
H        12.09286706035413   14.68995898130100    9.98466367998033
C        12.32475931788368   14.26596210376640   12.67191780930282
H        12.59371150490037   15.28604262764464   12.40422466346376
H        12.83891365093914   14.02231227908828   13.60018302459409
H        11.25138279994923   14.24262271736936   12.84345097944764
C        11.25955327943609   11.33588418635833   13.22411497199763
H        11.30017869905897   12.20935995356503   13.88319854051849
C         9.89249785463335   11.26621493613214   12.55484356684652
H         9.82893690120856   10.36940977841742   11.94150328131769
H         9.71603458622521   12.13925329550515   11.92978841111930
H         9.10728083919379   11.22558242065753   13.30708330593160
C        11.53582613870269   10.07462563085376   14.04060595611744
H        10.64268025322353    9.78323733475945   14.58807072653706
H        12.33589172563891   10.22731504760507   14.76216111122101
H        11.81885827383655    9.25385101796814   13.37778374167283
B        13.80320176292791   10.14207345646698    7.30430875719663
H        14.04823029223865   10.25006796863689    6.15781751777782

