66
CSD_code = HOVVOF | q = 1 | S = 0 | Stoichiometry = C32H25I2N3NiOPS(1+) | MND = 4
C        21.68528491913051    3.40035173637307    0.41038996373662
C        21.65576640624564    4.79017826675634    0.38883204290329
H        20.77818564027153    5.30708180056653    0.02775973667106
C        22.76015021010487    5.50413766498979    0.82076284618747
H        22.74269591816170    6.58304673400600    0.79554697119588
C        23.88322282589397    4.83922371012755    1.28565440174970
H        24.73933316116409    5.40189662569066    1.62492287160620
C        23.91048234961728    3.45268507144557    1.31634093183286
H        24.78610646833113    2.93572613309006    1.67847062864813
C        22.81414835930690    2.73271501289705    0.88305265690927
H        22.82213469719092    1.65058213884796    0.90082019744583
C        20.94667595512202    1.27213480129733   -1.35201994768764
C        21.86800062440535    1.74939820379719   -2.28130521095272
H        22.20845601298818    2.77455926325748   -2.23056706681294
C        22.35019399385768    0.89812573100034   -3.25845632949184
H        23.05898016135207    1.26457176301517   -3.98533876479868
C        21.92809212172485   -0.42183599534436   -3.30485844084946
H        22.30699190694520   -1.07961736461789   -4.07167183120576
C        21.03046635093931   -0.90165707412071   -2.36483790108152
H        20.71341640658091   -1.93271324624753   -2.39680579850323
C        20.54119878424401   -0.05684359446018   -1.38540937572116
H        19.84341756099668   -0.41568314535757   -0.63868936017546
C        19.12198853661590    3.54065837871901   -0.91941508690958
C        19.16062234662884    3.83831668884251   -2.27454640900304
H        19.89238905081625    3.37003867470989   -2.91535545228722
C        18.23296640535137    4.72162457728344   -2.80121260018713
H        18.25338966293398    4.94990450480997   -3.85553510613331
C        17.27338290646036    5.29885864074745   -1.98584096937340
H        16.54819619973803    5.97829285485062   -2.40637173645571
C        17.23098124204362    4.99738505047443   -0.63219304380277
H        16.47614832891334    5.44242822313554   -0.00140504605864
C        18.15351906410075    4.11816962668886   -0.10023531249449
H        18.13226768828386    3.85161161085809    0.95981837510673
C        21.13275696356121    1.85533179646825    6.25260928473145
C        21.24254006106251    1.58224604836746    7.61639720476546
H        20.44830274030581    1.05450221141747    8.12631060663932
C        22.36143463062707    1.98015754418596    8.32024228207012
H        22.43444684802961    1.76133288087655    9.37386146175521
C        23.38321207865308    2.65722047139937    7.67338401557487
H        24.25826935914264    2.96771928741091    8.22151049540052
C        23.27144853418502    2.93423624018447    6.32228271075080
H        24.05948644984261    3.46516838972334    5.81158062822193
C        22.15396617237775    2.54044984835046    5.60580714978002
H        22.08886593298050    2.77480589849539    4.55779969095236
C        19.55793699104728    1.38451300908365    4.35148678978998
C        16.70600799013539    0.24734595781501    2.61757145018257
H        16.14711355395606   -0.10212918361314    3.48773771555314
C        16.08690291681071    0.08000321003462    1.35742312214673
C        14.80096798835233   -0.49898142447923    1.29745004062230
H        14.31921202320869   -0.79236162519879    2.21764234127697
C        14.17382051265080   -0.68727029579159    0.09736822799618
C        14.79969645244958   -0.31495190441541   -1.10066918772320
H        14.30247266936214   -0.47345762071874   -2.04512915406782
C        16.04413966144040    0.24427791621280   -1.06016428457638
C        16.74525008759175    0.47647097879989    0.15287161369697
N        19.95181278017616    1.40606099902905    5.63099871685400
H        19.30941689590541    0.99475316145291    6.30122259538625
N        18.34202289205640    0.84958617491686    4.09362539320629
N        17.87901331502416    0.77535347393602    2.81031758378119
O        17.90759678573376    1.00988522411993    0.08648006234019
P        20.26681591346828    2.39278425178022   -0.10558153114701
S        20.44796931816391    1.96247234900773    3.02825635780998
Ni       19.06141218607656    1.48183762427697    1.45730749158683
I        17.06124982100503    0.81214610888156   -2.81247738003917
I        12.24708004106084   -1.55328253900595    0.02681696378929
H        17.74650716692451    0.48302046887391    4.83695870683138

