104
CSD_code = HOVWIA | q = 0 | S = 0 | Stoichiometry = C51H46Cl2P4Ru | MND = 6
C        -3.27824106744815    2.33510940992161   17.49634224427900
C        -3.18525794202407    2.42169260583533   18.88334043961266
H        -2.68058954422569    1.63991318401369   19.43772838924495
C        -3.74655961240718    3.49544351417228   19.54575064668605
H        -3.67088310412356    3.56431279326082   20.62164645362002
C        -4.41120902677799    4.48182178286122   18.83140833837342
H        -4.84823291623110    5.32029350891019   19.35416073186174
C        -4.51743608419561    4.38985508756886   17.45473004084877
H        -5.03821270971206    5.15291160879866   16.89537293490403
C        -3.95442423289330    3.31686490572630   16.78507654724920
H        -4.02151588986022    3.24867189140642   15.70929875631013
C        -3.54714141539475   -0.40489320721372   17.47242387988703
C        -3.02028191546192   -1.59685356356653   17.95392130211460
H        -1.96154645904884   -1.79770061307260   17.89145134281337
C        -3.86051379435823   -2.55522900114378   18.49341593389118
H        -3.44323297102268   -3.47941771726739   18.86621022456378
C        -5.22671757951526   -2.34007035560923   18.54720451796332
H        -5.87811875056710   -3.09496140076003   18.96291408210539
C        -5.75790107295347   -1.15476534061040   18.06400980153619
H        -6.82392493244022   -0.98232743105976   18.10205632075764
C        -4.92349831709664   -0.19236283231124   17.53088798767982
H        -5.33012120435407    0.73807591106452   17.15612043598802
C         0.73534974480112    2.79409243397105   15.90946261704649
C        -0.01987146145446    3.80860577212939   16.49053145459074
H        -0.99959696565743    3.59167581413669   16.89821760324212
C         0.46832448256683    5.10058073215401   16.52355821961473
H        -0.12337165351653    5.88477108590231   16.97308247855912
C         1.70372877522953    5.39073960951358   15.96764713023373
H         2.08150911421904    6.40266494796267   15.99076609633783
C         2.44868526680089    4.38739038778020   15.37017091879424
H         3.40629287391009    4.61411790672457   14.92412583532819
C         1.96468404811354    3.09350907956838   15.33090646404352
H         2.53619181024807    2.31058522589815   14.84998462859360
C         1.49374062760034    0.07533620827699   15.77444142849243
C         2.38728065224583    0.18981846997215   16.83492442391924
H         2.20075262915472    0.91569666752020   17.61637924846280
C         3.50731750867174   -0.61799295114356   16.87616810239657
H         4.20285772230296   -0.53357600245982   17.69890538632749
C         3.73893222120099   -1.53693782261300   15.86348771931019
H         4.61610002901852   -2.16652223165582   15.90075669174756
C         2.84770353688317   -1.65349619839751   14.81000761183158
H         3.02527559956687   -2.37585813592396   14.02646038490497
C         1.72369066538449   -0.84866660824824   14.76549183312235
H         1.00124540857932   -0.94431799309685   13.96353242176395
C         0.65512315883072    1.79414728684377   12.10102731656376
C         1.88705531500073    1.14186252899695   12.07607515008811
H         1.92653666083230    0.06224266253931   12.11557281158688
C         3.06026789231293    1.86691047676956   11.98723693985354
H         4.00909630586790    1.34948045571489   11.96613563706242
C         3.01989552774537    3.25057018336346   11.93063181561397
H         3.93815445299141    3.81581798220451   11.86189475566875
C         1.80054356257049    3.90526335271421   11.96948983764315
H         1.76447300845549    4.98439883843807   11.93723060768965
C         0.62294705813236    3.18556824090654   12.05794540546666
H        -0.31914325440713    3.70814886026867   12.11836998340905
C        -0.60236446678625   -0.68986800368291   11.40295282513619
C         0.11510605536826   -0.68422549133912   10.20946046079196
H         0.59924910250661    0.22409206276094    9.87578202984066
C         0.20871833050154   -1.83930922082839    9.45684073304876
H         0.77130657135494   -1.83474651095445    8.53406771444680
C        -0.42107100548871   -3.00045822240453    9.87960315328680
H        -0.34253526797412   -3.90062113113758    9.28733176765511
C        -1.15217544289814   -3.00390154228570   11.05502597062801
H        -1.65074392087021   -3.90378907858194   11.38386032094787
C        -1.24588624450634   -1.85078715829169   11.81489155876966
H        -1.81044700324414   -1.84955044088666   12.73941711187589
C        -4.79936077526147   -0.90022728986322   13.20966796412850
C        -4.64836549769464   -1.83025154370707   14.23039583464684
H        -3.89681888268715   -1.66982446902471   14.99083591914198
C        -5.44569434392432   -2.96077848678387   14.26615289678270
H        -5.32147413330166   -3.67762880762797   15.06456398518120
C        -6.39626954606847   -3.16716126195978   13.28167410164064
H        -7.01906337646887   -4.04971738744533   13.30539323610813
C        -6.55433396833131   -2.23826395762265   12.26396133310090
H        -7.30123039550749   -2.39745764978371   11.49921619238843
C        -5.76503572830684   -1.10487475169563   12.22800638113205
H        -5.90312430088807   -0.37309238985236   11.44437623473457
C        -5.09880434222982    1.83160534443785   13.58379407366171
C        -5.06600430925799    3.11493645338784   13.04769940753429
H        -4.28925603225766    3.39238441705587   12.35165199287886
C        -6.01207560505493    4.04888536240191   13.43064154211455
H        -5.97813373524137    5.04527268888325   13.01429582515973
C        -6.99130602716654    3.71520364247306   14.35124472009250
H        -7.72464670204505    4.44926467004803   14.65238356055779
C        -7.02845722413238    2.43824435390399   14.88788173339840
H        -7.79194935162376    2.17438093984372   15.60604967112311
C        -6.08637808022317    1.50094654523057   14.50859245108654
H        -6.11096982782154    0.50176377393648   14.92352226005728
C        -3.43135260002870    0.86222393333747   11.42143185954358
H        -3.34804844534163   -0.14456685364376   10.99220164998263
H        -4.26146515315369    1.38624788416038   10.93742716098442
C        -2.11470663600891    1.60995308842169   11.22767708497294
H        -2.21974789408741    2.65761095049244   11.52085586411867
H        -1.76762752580337    1.55267327481292   10.19002762332965
C        -0.84091240248203    0.82604742800888   17.33745101802656
H        -0.63937320297509    1.57255619817249   18.11118364437257
H        -0.58330014091561   -0.17531536712407   17.69627678254356
P        -0.86728493352005    0.83798899355298   12.35822629624190
P        -3.79044263832583    0.61501639411451   13.23491236120798
P        -2.57036473666405    0.88904641069443   16.63949973903482
P         0.02621121286385    1.13891144426951   15.71749228199472
Cl       -2.00903653758194    3.22035189989836   14.08738704273442
Cl       -1.39766432365315   -1.42067519643639   15.19530692535993
Ru       -1.84670034691454    0.84087205096552   14.41631739085159

