111
CSD_code = HOVYOH | q = 0 | S = 0 | Stoichiometry = C55H48O5P2Ru | MND = 6
C         6.92732263978239    3.82363409595631   17.32991496049673
C         5.70898760711408    4.17900355997492   18.15051130598104
H         4.98205091800909    3.37222841322846   18.09276344227334
H         5.27815687922939    5.10607294746922   17.78392012160412
H         6.01050489388249    4.30604117087151   19.18893003624104
C        11.09080956056226    1.38891205824120   15.72165110127034
C        11.73801471095545    0.02308035482977   15.56586263466981
H        12.63440523290922    0.11455291986609   14.95974462296333
H        11.03532826869918   -0.67070897190443   15.11392796990316
H        12.01907391677747   -0.33612024819705   16.55423466811052
C         9.87548132396114    4.27928265814811   14.67105856622580
C        10.42482735457667    5.00020624459894   13.75083036981918
H        10.06335552751123    5.99912455207653   13.54366092175552
C        11.54915331488758    4.52693867473848   12.82815161826821
C        10.98986169711196    4.63404004518034   11.41462451248020
C        10.72735614185904    5.88442341165814   10.86645270086574
H        10.95190784072699    6.77922546634652   11.42929179622709
C        10.19500064233775    5.99333894582154    9.59640464649167
H         9.99993112608745    6.97079189618786    9.17930538191682
C         9.91585649784671    4.85572477628340    8.85756597703816
H         9.50074404177741    4.94327976740976    7.86385220069482
C        10.17936132483581    3.60996037232859    9.39711153877563
H         9.96941580716765    2.71627536072499    8.82705816591177
C        10.71504273275273    3.49893515514437   10.66791692849173
H        10.93318549045154    2.53091520584610   11.08623875912224
C        12.78461788145089    5.41860010507249   12.91821489141527
C        12.79758226915146    6.66729407330609   13.52237094433553
H        11.91683626596745    7.04976508085468   14.01584665520828
C        13.95278531115092    7.43231031426335   13.51941738232060
H        13.94907536945668    8.40395915384483   13.99286284728843
C        15.10561144695339    6.95791962019660   12.91980760387849
H        16.00412024106296    7.55774632044390   12.92000424357663
C        15.10137056612745    5.70736519905430   12.32432375582657
H        15.99817519260032    5.32684469323501   11.85766383420163
C        13.94849294476128    4.94626228234994   12.32149913250681
H        13.93384021406032    3.97066473601563   11.85944909908705
C        11.88454064600706    4.69443803399344   17.79475360420082
C        12.56783752228324    5.14362813881464   16.67548156170027
H        12.21025881862919    4.86168568756427   15.69991203685651
C        13.69985311986554    5.92783715828126   16.81902621012919
H        14.23046390234530    6.26529365379357   15.94079606044229
C        14.15087611102011    6.27448937582700   18.08070201858237
H        15.03521396752206    6.88502073567263   18.19274294799737
C        13.46637969703235    5.83572813583350   19.20358006659097
H        13.81490263510342    6.10454180555444   20.19060212049341
C        12.33832625877981    5.05030318372687   19.06355429157996
H        11.80808402117920    4.70634065133119   19.94179912355693
C        10.89239836486618    2.10537833102015   18.51469183600516
C        12.20785296419777    1.83270985999444   18.87202667624446
H        12.98278732665276    2.55377788271392   18.66019541319703
C        12.52601259575799    0.62870398306786   19.47583679018541
H        13.55038464110620    0.42390363443353   19.75248828339366
C        11.54142290780078   -0.31514715483747   19.71840095524534
H        11.79529378098520   -1.25456947598410   20.18820037273267
C        10.23252139499646   -0.05655982229927   19.34503789747000
H         9.46381837497234   -0.79591788125835   19.51946769827732
C         9.90791723123337    1.14534027143255   18.74205084103563
H         8.88747288832381    1.33882996158095   18.43740051831874
C         9.42457804821355    4.49205714113352   18.96550612458459
C         9.02685454129440    3.94361540814726   20.17702644771781
H         9.32124863115853    2.93750863839292   20.44213775449789
C         8.25212043799124    4.68623451716894   21.05379230720568
H         7.94646933367644    4.25235329426271   21.99565305780571
C         7.86917854917382    5.97603896633539   20.72862500508475
H         7.26200973980996    6.54901285195623   21.41467140895751
C         8.26446208769045    6.53033106169890   19.51999855830479
H         7.96513936225501    7.53600023888417   19.26274415292717
C         9.03559886315202    5.79178549784683   18.64476433848525
H         9.34274229483142    6.20610438083980   17.68970911794984
C         5.74029809891401    2.42402254913237   14.79232523352997
C         5.55471070078593    1.33393253519341   15.64281733064072
H         6.39824422986792    0.69321039971019   15.87027017779741
C         4.31278084950928    1.08950727466980   16.19550908972010
H         4.17088443719352    0.24478721676419   16.85418741029125
C         3.25028763789541    1.93531365899970   15.91186491128234
H         2.28006189671148    1.74758562931674   16.34846588144683
C         3.43361409899615    3.02336114095758   15.07506270060915
H         2.60621746925939    3.68349625068428   14.85842605039536
C         4.67584122916964    3.27370627205795   14.51693539411810
H         4.82134652843704    4.12619235593374   13.86814287553333
C         7.86581859410334    1.24281518610890   13.27644571566031
C         9.19656803998535    1.13810335307328   12.87869273920718
H         9.88991668673675    1.92574778041379   13.14755683303709
C         9.61844612632777    0.03716356982361   12.15767369382762
H        10.65355545630723   -0.04593401382153   11.85992492823457
C         8.71679598792590   -0.96211198814526   11.82509793572089
H         9.04699907898160   -1.82668285994343   11.26761313286253
C         7.39021924496526   -0.85286653333619   12.20739451966175
H         6.68519167777746   -1.62783786148865   11.94240457951016
C         6.96022716840648    0.24630599741095   12.93143224829469
H         5.92251817424250    0.32618118462631   13.22509495498388
C         7.23995568004657    3.98461092253426   12.91354030298646
C         7.21526434863549    5.32155076293771   13.30517232324146
H         7.30782942978674    5.56362896785961   14.35827204194421
C         7.08917042319124    6.31841407276812   12.35595481789031
H         7.07047111797862    7.35488826910258   12.66096374563694
C         6.99329276942087    5.98950516503573   11.01294683099153
H         6.90243638048446    6.76867712639038   10.27074702684919
C         7.01827790319112    4.66214028466221   10.62164993830139
H         6.94563559668719    4.40593038228690    9.57532858428339
C         7.14218723283343    3.65901294910887   11.56654023380556
H         7.16905672890375    2.62423467251934   11.25695436409147
O         7.43094159645437    4.69163846604784   16.56858276236696
O         7.42978908497427    2.68412606319597   17.40138170077796
O         9.83138166472818    1.40838189020134   15.70032990821132
O        11.79384159606140    2.40244234562627   15.85445300397388
O        11.89783302110117    3.18837413163644   13.08683665373280
H        12.03516822111743    3.07316177688283   14.04427605103355
P        10.40340528499336    3.64136339912435   17.66528227036624
P         7.43507614781513    2.73359673548694   14.21889345456470
Ru        8.90637810438946    3.29203395989512   15.90873471356732

