97
CSD_code = HOWHOR | q = 0 | S = 0 | Stoichiometry = C28H56HfN4O8 | MND = 8
Hf        2.88488807956614    7.46975542971568    3.46687588439452
O         1.55062157854915    6.08128438915949    2.50704892501035
C         2.27128672308378    6.01584609852168    1.46494388582940
O         1.85638806363851    5.34617480688102    0.37488472785370
C         0.60518454329130    4.64831981615080    0.47614101603489
H        -0.03774709131133    5.20714693641424    1.16684904940020
C        -0.00327833837274    4.61631877458767   -0.92000519772741
H        -0.15073181551554    5.62736348209443   -1.29050380786624
H        -0.96211641152792    4.10641033067102   -0.89290577194086
H         0.66117572075190    4.09148159495680   -1.60153447123020
C         0.84420048437852    3.24843032621276    1.03234591866350
H         1.49825956758300    2.68807064665441    0.36796271457105
H        -0.10040069722612    2.72088107832306    1.13372513299102
H         1.31463775306318    3.32419532167282    2.00955613902513
N         3.41909092963383    6.61591993385550    1.47447451750888
C         4.26386882756987    6.62050278808995    0.28575738288236
H         4.27952774974310    5.61055401458443   -0.15333820818423
C         5.67000359254490    7.02327886339082    0.71997764702733
H         5.60835073897696    7.94572154606145    1.29247796857905
H         6.31716859440207    7.15808095636901   -0.14434613982175
H         6.09267584683828    6.25965489715444    1.36664703831402
C         3.70659534764713    7.59375808687914   -0.75793956315553
H         2.72416803997991    7.26324741168665   -1.08556510785942
H         4.36787886299923    7.64450749207919   -1.62042155241397
H         3.61277276065468    8.58427193267961   -0.31964186965749
O         4.89353708682176    6.86683637581642    3.92617268088867
C         4.50543899484796    5.95509854060608    4.71889902270286
O         5.38445036773490    5.26583058190118    5.46754240319992
C         6.77716297588577    5.55372982846340    5.26891691310046
H         6.86787238806490    6.61167206243071    4.99461733387979
C         7.31938208399451    4.69133573912280    4.13400295760142
H         7.21169106663001    3.63747161329601    4.38085813323714
H         8.36927755725232    4.91410131968801    3.96427329230188
H         6.76093834587853    4.90000443405375    3.22485849653925
C         7.48222913499422    5.27671217374262    6.59052618042069
H         7.06481455503325    5.89851569996603    7.37820615117779
H         8.54286689756981    5.49134402538532    6.49528237952534
H         7.35215135651433    4.23372378357052    6.86760370861693
N         3.23677592634830    5.70685458944723    4.79439773553637
C         2.73152865491093    4.70668811634458    5.72786809135239
H         3.36257798679394    3.80578343104839    5.67157716392715
C         1.30235036612299    4.36889628679347    5.31448351579179
H         0.73483852795350    5.29239892472458    5.22969554979853
H         0.83730634738095    3.70531018506034    6.04072132374249
H         1.30062961465939    3.88952355020136    4.33980930562819
C         2.78073402960721    5.24361498321930    7.16181058250589
H         3.81182495329860    5.42202992925195    7.45582132847327
H         2.33594474333331    4.52830589937777    7.85031746298663
H         2.23514252352720    6.18216975900090    7.21856362121246
O         1.17725687773706    7.65068724814837    4.86906158010834
C         1.85057965405013    8.41808999115860    5.61479791620622
O         1.34727925903705    8.87129691117736    6.77810109944763
C         0.07722564947949    8.34215192198990    7.19153570292304
H         0.04238657929360    7.28195814811665    6.91097246091315
C        -1.06257007175370    9.07765560072366    6.49507342164157
H        -0.99694958181910   10.14507074267983    6.69498962869160
H        -2.01699660128073    8.70587304285845    6.85829233486472
H        -1.00307064536076    8.90820318853928    5.42337860537484
C         0.01767705426724    8.49439988168148    8.70632752385854
H         0.85679557490127    7.98149893742430    9.16880089244586
H        -0.90857534841363    8.07101934933043    9.08412835735809
H         0.06519201032681    9.54665321180888    8.97412218627943
N         3.05071632082053    8.75126903951483    5.24744194808630
C         3.82232722716382    9.70412848527743    6.03762548698643
H         3.69354165014708    9.48449436194903    7.10902009450646
C         3.31353410703210   11.12306182634862    5.76453608375424
H         3.32982149463314   11.31120535106385    4.69383377136181
H         3.93600013926156   11.85799797054969    6.27013895094776
H         2.29085564349771   11.22300090325753    6.11931514518836
C         5.28983632479552    9.55275451214800    5.64720235299389
H         5.67528590071375    8.60351100784692    6.01050579061728
H         5.88581668596507   10.36079433111660    6.06701004550481
H         5.36521267045699    9.55459608730586    4.56125371340616
O         3.94820853038658    9.18891373390229    2.55197897683776
C         2.85376577389998    9.65789131721325    2.12739947680628
O         2.82281914393147   10.77637073993959    1.37910930881259
C         4.08734579302700   11.32726349552686    0.97623580298160
H         4.77038535925224   10.49406460000135    0.76839359111909
C         4.67755706824435   12.18670496409709    2.08903045630993
H         3.97809083443584   12.97226248343584    2.36697479409687
H         5.60531449819201   12.64041937534284    1.75056945460322
H         4.88477595589267   11.56630486699775    2.95672029619910
C         3.82601897916224   12.13114074003046   -0.29135836800293
H         3.38964758648254   11.49516076517633   -1.05694741778754
H         4.75806594698301   12.54625413060054   -0.66412979570907
H         3.13370598311371   12.94146326640350   -0.07860385532874
C         0.46371775517009    9.57829519739413    2.01178573859230
H         0.53290068195236    9.97675311766003    0.98747104357698
N         1.75393031116804    9.02780771796565    2.41058341226042
C         0.08212721461372   10.72110688320104    2.95763796257153
H         0.12035154577327   10.36528596598313    3.98428837929965
H        -0.91968262285595   11.08324049087154    2.73759662062200
H         0.78632249067732   11.54193782254249    2.84793548436536
C        -0.55897125957485    8.44670146205113    2.06367332914819
H        -0.36068152489277    7.73015946332999    1.27063934319894
H        -1.56934936258709    8.83369238522538    1.94681159256937
H        -0.46158119412341    7.93080417557547    3.01734768703158

