37
CSD_code = HOWJUA | q = 1 | S = 0 | Stoichiometry = C15H19N2Ni(1+) | MND = 8
Ni        4.71558682438692    6.21287579128497    7.66351150069819
N         6.44681904274750    4.09966921446671    7.97288153652696
N         6.59516580147205    5.10050791068141    9.87056697269953
C         5.97209424867934    5.15205249386934    8.67962092355340
C         7.43021763972800    4.02049721258054    9.91476136804926
H         8.01699412857893    3.78761854070016   10.77916713799490
C         7.33972656283512    3.38869410762326    8.71777029328833
H         7.83481687904151    2.51292834770251    8.35271657299721
C         6.00235485118862    3.81085187598377    6.62649062842897
H         5.33943620694262    2.93921641816807    6.64178896846541
H         6.87075521604228    3.57007947719015    6.00236287899761
C         5.28019994539775    5.02064413292932    6.06031516064020
H         4.42008817990875    4.79776187726581    5.43124154940957
C         5.89689457688164    6.25282243532447    5.97833707679201
H         6.93687217591022    6.37009270749667    6.27373513675276
H         5.51930489730804    7.00441922277467    5.29232015222800
C         6.39771701660865    6.00424017823002   10.97652779971471
H         6.10325085173554    6.97892228931968   10.57353500507249
H         7.35103862893020    6.12898159114694   11.49946873683014
C         5.35765775288191    5.52918436848714   11.95614573645940
H         5.25515371056144    6.17369411443231   12.81707624480575
C         4.61550648631213    4.44676475334851   11.82782602845943
H         4.69350330325346    3.78191469394239   10.98227782751669
H         3.89229272717603    4.17431852652052   12.57536711290899
C         2.29837203155886    7.20274134950838    5.58798122531723
H         2.97764062985798    7.63648241589757    4.85659518180428
H         1.43308143421265    7.86528705786794    5.66098985319573
H         1.94904777419461    6.23593583130167    5.23249290752687
C         2.91987391717902    7.10303887225548    6.93547915468184
C         3.74396909139795    8.13347842512283    7.53538161772404
H         4.01280455286697    9.05992734642036    7.05524717215807
C         3.98853215884629    7.77741661577581    8.85008944813038
H         4.44378616789763    8.39483768880258    9.60737958897563
C         3.30734078100567    6.50646402316941    9.09670142284601
H         3.19572990532979    6.05326449133144   10.07133363455166
C         2.59006210695804    6.16000911927174    7.93891069989893
H         1.87431179418527    5.36116448180488    7.84380574389920

