56
CSD_code = HOWKIN | q = 0 | S = 0 | Stoichiometry = C16H29CoN6O4 | MND = 6
Co        5.72847121551982   10.66704758771741    4.00919381884160
N         4.33369013834589   11.89479764374259    3.70035724106556
N         4.27893425953290    9.46836776583044    4.23953228230873
N         7.11441415883915    9.44734095936755    4.36689758990380
N         7.16131612576456   11.85704359153649    3.77627067020883
O         4.49218124501050   13.22172069301022    3.46419608423318
O         4.42464383066581    8.23010879166579    4.56543821232293
O         6.95947908182040    8.13211796825147    4.67308920629352
O         7.00182047273805   13.10184900711663    3.47424742002550
C         3.13785704507043   11.40731228983312    3.78020096660606
C         3.09937079812046   10.00294505717831    4.08616081592211
C         8.30601134660368    9.94469731302247    4.32487976195460
C         8.33786664295134   11.34225932526444    3.98171569062208
C         1.89725543174083   12.21514994295984    3.58993508975782
C         1.82448567905752    9.23532552902604    4.23415576886459
C         9.54058972066473    9.14345704298054    4.54553039248033
C         9.60703457477047   12.11567082346957    3.83352443190807
C         5.83323999455521   10.19448816893117    2.02659771884061
C         7.15808417649352    9.80453724986701    1.68011466954629
N         8.21695728130347    9.50856087259650    1.34474430781613
C         5.39164784491887   11.29445389931421    1.05735623176771
N         5.56360606932391   11.14019484949966    6.13634898524473
C         6.27189980964991   12.34176260294959    6.59864346637574
C         5.82018354256046   12.75583729877778    7.99841432943683
C         6.04518775836059   11.61209433720721    8.98334957745316
C         5.34077895865301   10.35664357727565    8.47690692433840
C         5.81107530864257   10.02506412268434    7.06171971230856
H         5.53081470613604   13.33865670626269    3.39914951528282
H         5.94014695221295    7.98035133333753    4.63782607686806
H         1.29962716928868   11.79609578225064    2.78233601929597
H         2.16318667178191   13.24064267582851    3.34706078503468
H         1.29199081402419   12.20485180031972    4.49519478001704
H         1.20143254177697    9.65840985715250    5.02114167916913
H         2.06967305754683    8.20583233562137    4.48644261428011
H         1.25688770458241    9.24799495225377    3.30497462920642
H        10.27691248405688    9.70253838866826    5.11681610308051
H         9.96617350522545    8.90019884672447    3.57193158187441
H         9.29292759376134    8.21549659504412    5.05465137406505
H        10.17210891150702   12.13058221563188    4.76466144805862
H         9.36022065948094   13.13595610549692    3.54855118342269
H        10.22491817857105   11.66618124920167    3.05837007990912
H         5.19022746078929    9.31355994544562    1.90313413306909
H         4.32924782144081   11.50349013161676    1.15182177778886
H         5.58077051676980   10.97011903011205    0.03171641087473
H         5.95130458215771   12.21319024625093    1.22039856651840
H         4.56632574516780   11.35412096614499    6.21503007361738
H         7.34312031828963   12.12438969915702    6.60373010295938
H         6.09162537148673   13.15731387376282    5.89543799843730
H         6.37445455508320   13.64205216248671    8.30934011538012
H         4.75864514058604   13.01783561378552    7.97522943570667
H         5.67011258095150   11.88437972030536    9.97137404523147
H         7.11584011524330   11.41586551371654    9.07378804634366
H         5.54850884358828    9.51113921812647    9.13351119092768
H         4.25904782454088   10.51818750630528    8.47346688211402
H         5.29213775202403    9.13597177795666    6.69860227749783
H         6.88372791025127    9.81704743995859    7.06868970752040

