40
CSD_code = HOWKUA | q = 1 | S = 0 | Stoichiometry = C14H22N3Ru(1+) | MND = 8
Ru        4.35895641087007    8.74449338148003    3.20300765626217
C         4.56667300451537    9.36645450924528    6.19366653689082
N         4.33831244503853    9.20024927548742    5.07319095863278
C         2.17617800502754    6.63419774966635    3.55797410367733
N         2.87856011929868    7.54813137948834    3.48707327459458
C         4.80665627453164    9.59424057381356    7.58499292287307
C         1.26875850811117    5.53369647107075    3.66188321864561
C         5.46112717165005    8.97269175531290    1.27414509609083
C         6.29154843071101    9.43762583606805    2.34707472579301
C         6.58397012588322    8.32296178259417    3.17513705268374
C         5.89209664455326    7.19625506441679    2.67672752508950
C         5.20303489366647    7.60147464343152    1.48859497113507
C         5.00015069212126    9.77862702824820    0.10161334634693
C         4.15974559922733   10.99680704600097    0.50837581251644
C         2.89450961350706   10.64566622280746    1.29890274912342
N         3.03529949794580   10.44840902609889    2.75917372541890
C         3.56681618400865   11.66833004170797    3.38290826597274
C         1.68225497847355   10.24194869621867    3.29809205698426
H         6.82155573669893   10.38032117718226    2.36395507762618
H         7.27780031911594    8.31934169865121    4.00468104533250
H         6.00890036710676    6.17928959092805    3.02213389373398
H         4.72124366805116    6.93491587035158    0.78538559133859
H         3.91125864583062    9.35646874349018    8.15953840310125
H         5.62467850030032    8.96020074764257    7.92672755435823
H         5.07296116834799   10.63788961293080    7.75388729294304
H         0.83809856080208    5.31043639985429    2.68567391161014
H         1.79649636096814    4.65239775993039    4.02641898864563
H         0.46645350783073    5.77993386231593    4.35759672285381
H         4.41509763115915    9.14153397531885   -0.56642228706569
H         5.87326710037954   10.13246224010048   -0.45402536524313
H         3.83884941322256   11.49821681015055   -0.40643875432885
H         4.77907022862657   11.70398250814472    1.05842096016927
H         2.17127874637775   11.45836684337164    1.14327626801251
H         2.46280779939717    9.72867722792901    0.88273320667000
H         3.01356828327101   12.54936260746280    3.03965056124043
H         4.62106182605039   11.80029085025544    3.14924295506331
H         3.46568978380016   11.59560913842639    4.46541783744036
H         1.19612040606075    9.41057120541412    2.78781043018289
H         1.06967215096324   11.14005993483789    3.15986864470709
H         1.74022119650665   10.01511071216533    4.36503306289086

