27
CSD_code = HOWVIZ | q = 0 | S = 0 | Stoichiometry = C10H8N8Pt | MND = 4
Pt        5.03270036209452    9.28529695506864    5.26639533455345
N         3.86416592298716    7.79275947860891    4.72287497807472
C         4.37283914780902    6.55771455656040    4.96040395921262
C         3.65364143660168    5.40936057917665    4.62748212118567
C         2.40627938012110    5.52763973716851    4.04867303448621
C         1.89832366700092    6.80206086139547    3.81231993783003
C         2.65701575338774    7.89860038218983    4.16299997790295
N         6.29708928079424   10.65199661067215    5.85712557626799
N         6.38441074238562   11.82566887775988    5.90947970663569
N         6.62751096883901   12.92275874678219    6.03272214011728
H         4.07060424317544    4.43484814611589    4.82167659671084
H         1.83847095135157    4.64911978653889    3.78561822414858
H         0.92868417992801    6.93916621322844    3.36266815716353
H         2.30175453010422    8.90677594675495    3.99725527575252
N         6.20157858744552    7.79273646586123    5.80886429680367
C         5.69223389001612    6.55770351366144    5.57275893016434
C         6.41117037926729    5.40934492955082    5.90621204529384
C         7.65923933237303    5.52761395763157    6.48350623282052
C         8.16814021235936    6.80203529326630    6.71783436740565
C         7.40945959320334    7.89857320178687    6.36714591554137
N         3.76739171255959   10.65182401014953    4.67724113076933
N         3.68028992929911   11.82563803823724    4.62427955148992
N         3.43748477715727   12.92273049102637    4.50035600262133
H         5.99347774557206    4.43484553343691    5.71356116912439
H         8.22689338341560    4.64909300566157    6.74687931678308
H         9.13846488712076    6.93914523052096    7.16600487196244
H         7.76528500363307    8.90674945118340    6.53166114917445

