119
CSD_code = HOXBUS | q = 0 | S = 0 | Stoichiometry = C54H52O6P6Pd | MND = 4
C         4.28451641821713    0.48872813438195    7.92708758439915
C         3.59267148009481   -0.55096816199938    7.31038312713102
H         2.60921950171568   -0.36351598345601    6.89680840668552
C         4.16595497720680   -1.80300886757062    7.21550335250009
H         3.63038197109786   -2.60695329546104    6.73174403149701
C         5.43339030172839   -2.02139009947619    7.73437629567342
H         5.88342397017071   -3.00071382655684    7.65969850972570
C         6.12551626880179   -0.98675702767962    8.34283452042793
H         7.11300186208985   -1.16190830010795    8.74496809976543
C         5.55987306314610    0.27288884831887    8.43237462526217
H         6.08531560165137    1.09247439341473    8.90124819524471
C         2.02300612159877    1.90415934401257    8.95844548013940
C         0.88497345284098    2.61496267846176    8.58553518389627
H         0.90133406510001    3.22746948324785    7.67263091833143
C        -0.26746620113090    2.51770186707550    9.34229312061020
H        -1.15534235085055    3.05965489529218    9.04998002872770
C        -0.28016666058417    1.71672479602982   10.47333188370560
H        -1.17923535817222    1.64180961944966   11.06762374624929
C         0.85300577831467    1.00829268802771   10.84408386617113
H         0.83374868435009    0.38620309845513   11.72727576795669
C         2.00729826351512    1.09529456576150   10.08900882540578
H         2.89994671711835    0.55205004708175   10.36708109590013
C         6.13133615035903    5.33150158103810    7.20503042444813
C         7.24914041524082    4.80123810640376    7.83535424428309
H         7.11938706217723    3.99615439344092    8.54548681740339
C         8.50058749526437    5.32387271975557    7.56282505634877
H         9.37052244173042    4.92300725900221    8.06238428008928
C         8.64067540176844    6.35707500633371    6.65035680443689
H         9.62056625317559    6.75822491221811    6.43567799283979
C         7.52667883261182    6.87801447765954    6.00927672910767
H         7.63749571307876    7.68000618807578    5.29368966365377
C         6.27418936800164    6.36700233927836    6.28499642687523
H         5.39700428282632    6.76138830511756    5.78748711338220
C         3.54485847121367    6.06320990962914    8.17835721009288
C         4.13607509018676    7.08178800987987    8.91809474341398
H         5.19679383428091    7.05041936318046    9.11818433342503
C         3.35187836648114    8.11367734671514    9.40132269925993
H         3.80672090133098    8.90465762905560    9.97965221934803
C         1.98984275629377    8.14008272100741    9.14514124476040
H         1.38623375597146    8.95336524533116    9.52064425157372
C         1.39969529855095    7.12997164639128    8.40171377362990
H         0.34061329160311    7.15804492436560    8.18962022351736
C         2.17483155679481    6.09301715434186    7.91970022256826
H         1.71527476238351    5.30111739410505    7.30829830019586
C         4.72088052786067    3.26676966121319    8.62197268220399
C         2.56488122668186    4.64027145225031   11.23254385004997
H         3.16038485600257    5.55431889150812   11.30161437441580
H         1.97829675474713    4.50957996655696   12.14271558554746
H         1.88991736646826    4.71500972645591   10.37418583787181
C         5.97744170869907    2.41212774368255   12.29229370288007
H         6.31814767507783    3.41783069955029   12.55033864124779
H         6.79565679752153    1.70098482981607   12.40915980914301
H         5.14944030055042    2.13553666825282   12.94776929822257
C        -0.00691968065436    1.60917280000889    5.08817324705613
C        -1.07039800776933    2.01047537952925    4.28990751115134
H        -0.89440164969748    2.73111719350484    3.50339412787331
C        -2.32544489173255    1.46863919875845    4.50012995599081
H        -3.15185098239698    1.76767522827618    3.87202640897026
C        -2.52527832655635    0.54611387866325    5.51486405263041
H        -3.50881877416366    0.13042931548779    5.67946445149695
C        -1.46797980621921    0.15770949478984    6.32336993176080
H        -1.62635551140778   -0.55490039704047    7.12005843354191
C        -0.21009812940312    0.68731297913232    6.11134797627115
H         0.62071276964768    0.39950427690471    6.74380672646752
C         2.62087122151917    0.91875610593232    4.18486022274122
C         3.98547045684678    0.90500365601940    4.47310492842569
H         4.41931024205652    1.69074234179120    5.11146844852191
C         4.78683765135476   -0.10890988761815    3.98538003759924
H         5.84176517026245   -0.12516422228676    4.21850169282772
C         4.22901615600290   -1.11098595883515    3.20658508157263
H         4.85403612115834   -1.90532228073271    2.82562596130966
C         2.87270899197482   -1.10029232250253    2.92130005477728
H         2.44314524292651   -1.88451314735910    2.31516815700380
C         2.06198950673370   -0.09167669603971    3.41012299084419
H         1.00532069606032   -0.07270475215025    3.18764943939199
C         1.73391902230237    6.45911554634635    4.47987009450113
C         0.42179641562285    6.59635380044690    4.04574608863832
H        -0.08412394925119    5.73865538757758    3.62541152404299
C        -0.20546413147818    7.82588651648526    4.14082547474010
H        -1.22216540782878    7.93860115079552    3.79273233037888
C         0.46337190638060    8.91031257632867    4.68524529581678
H        -0.03296368726861    9.86674724825293    4.76333215285937
C         1.76793139338364    8.77083488892374    5.13462857625156
H         2.28676652687083    9.61385735946677    5.56750854346232
C         2.40142983817170    7.54851384706479    5.03448236950060
H         3.41671429652792    7.42521436964458    5.39044018218213
C         4.08671693185893    5.16685047968536    3.49226816129114
C         5.22767960765359    4.45543395278183    3.85417963577906
H         5.19338742676250    3.77642546786367    4.71726573500063
C         6.40364680622228    4.63042202577424    3.14985033544446
H         7.29296222219288    4.08785117604111    3.43663901311106
C         6.43821901796831    5.51204929906831    2.08128017883282
H         7.35665483266054    5.65140815675669    1.52976181983347
C         5.30116877014881    6.21811590933772    1.71823050396152
H         5.33671887599375    6.90231281301876    0.88262669484916
C         4.12260473626216    6.05176698252560    2.42061608608938
H         3.22771446648927    6.59300612605188    2.14603542886430
C         1.43571485559799    3.68594477152721    3.72218648752625
C         3.76469178897627    2.40435375461437    1.19227101730319
H         4.40167134864005    2.29784769555881    2.07575929607805
H         4.39008339756266    2.57291863061924    0.31456145879619
H         3.17692864082679    1.49218994011923    1.06022341250396
C         0.42165475964102    4.68143383010521    0.02880755699526
H         1.28554585039477    5.00004764011744   -0.55805330376610
H        -0.39771656994455    5.38861925524806   -0.10440481202523
H         0.11210973581683    3.68643300018171   -0.30100889596031
O         5.48287716849837    4.94808224407902   10.68691696721178
O         3.39988192666105    3.51566788749918   11.10838596739508
O         5.57256161540599    2.36507553289371   10.93675602264561
O         0.82315210217210    2.06891350979296    1.54289976845975
O         2.92031153899275    3.52086978223112    1.32527169096260
O         0.73943821442873    4.66353706375478    1.40771863461923
P         3.51870513286577    2.13163641165669    7.95710088029930
P         4.48391781074946    4.64975393969432    7.52349073519197
P         4.83969950949945    3.67220813465561   10.34363500247854
P         1.64569998439618    2.30965467373355    4.83417910583004
P         2.57386412740948    4.85286516694240    4.44160224051555
P         1.43422085205198    3.32988720327604    1.98619329843752
Pd        3.04564518216212    3.48567749889231    6.19581618317998

