63
CSD_code = HOXBIG | q = 0 | S = 0 | Stoichiometry = C27H27Cl2O3P3Pd | MND = 4
C         0.59997557148515   -2.36954395951147    5.54486653639439
C         0.11005482896447   -1.06651412269785    5.57929570904815
H        -0.23719818208883   -0.59118945519811    4.67091154033613
C         0.06316556425924   -0.39248460773461    6.78610933899340
H        -0.31264978000008    0.61966528107388    6.82080542685186
C         0.49310080667191   -1.01249076093967    7.94989090573724
H         0.45135326170926   -0.47802967813443    8.88739351366217
C         0.96582245140613   -2.31474963052016    7.91709942624692
H         1.28871938982949   -2.79737954365610    8.82710887919579
C         1.01822920731872   -2.99807475304002    6.71547386467067
H         1.37672204274856   -4.02282322803746    6.66491411508455
C         2.03654864923873   -2.64426061134864    3.02643973171057
C         2.80380065088154   -3.57260619860854    2.32463657137206
H         2.57857534793385   -4.63407420473784    2.42983925419384
C         3.85050348574429   -3.14376449898693    1.53059946328930
H         4.44895132573842   -3.86180475074642    0.98969192210420
C         4.13703598246386   -1.79026047868734    1.44187986709372
H         4.95480676796060   -1.45193921047502    0.82262325225535
C         3.38872160283235   -0.87019126208422    2.15886937782651
H         3.62525161287133    0.18177157829066    2.09870665018171
C         2.34176917070889   -1.28999717498553    2.96012394418288
H         1.77242235016637   -0.57023100650731    3.52617921309882
C        -1.30699303826784   -5.26045771994540    1.25257685726710
C        -0.12925327793116   -5.88526646566507    0.84490046614647
H         0.64415308277913   -6.12116489107090    1.58754436684579
C         0.04541460651924   -6.22467922077716   -0.48309672023220
H         0.95741369990260   -6.70609461204754   -0.80314445928546
C        -0.95779109551839   -5.95664819763736   -1.40156532018097
H        -0.82185709930700   -6.22126584112189   -2.44002903048173
C        -2.14258372688693   -5.36786040219707   -0.98941779471789
H        -2.92974569091820   -5.18072396556174   -1.70552244622439
C        -2.32615081819843   -5.02373747532874    0.33767920874263
H        -3.25270180987479   -4.57448246968553    0.66337226394652
C        -3.19622454628833   -4.94087593497708    3.38414763555627
C        -4.09838656655796   -3.89050116778927    3.25879385947365
H        -3.76002348255786   -2.91967573257543    2.92490080458676
C        -5.43336497949093   -4.10071122227180    3.55619485976646
H        -6.13916077288585   -3.28831300611367    3.45917965442996
C        -5.86664924657588   -5.34774103728035    3.97830253898671
H        -6.91006701648741   -5.50183836567870    4.21007978379420
C        -4.96587917173781   -6.39356263039937    4.10908798580189
H        -5.30525154761274   -7.36178361284945    4.44464460351607
C        -3.62979478785179   -6.19337110065282    3.81636207766694
H        -2.90383967297352   -6.99099119597399    3.92540259018744
C        -0.94366145225513   -3.02535639943819    3.18690829619624
H        -1.62074348323906   -2.52243916082648    3.88724864092964
C        -2.95757420903587   -1.01385458431944    0.53494257763734
H        -3.93653859390167   -0.99918800174209    1.01682114261155
H        -3.08541138088572   -1.08022256593954   -0.54608088488021
H        -2.40844919807658   -0.10434532670079    0.78534043640107
C         0.80495939545588   -2.36272484415498   -0.30793904752833
H         0.16098680542093   -2.48091626425399   -1.18165407419489
H         1.73612931451222   -2.90759558867680   -0.45779102353024
H         1.01709987686719   -1.30339045641485   -0.14690500006846
Cl        2.42632617948119   -6.09786473868150    4.97147658511343
Cl       -0.20997099111946   -7.75198573553483    4.04247840649272
O        -0.40500167326721   -0.60479363740676    1.84213142822947
O        -2.24765906113788   -2.15627681892008    0.98461882152043
O         0.18190061463060   -2.91961889782321    0.83759731503474
P         0.70593913407911   -3.35557323569358    4.03029208806029
P        -1.42806248668896   -4.83046466123518    3.00965833556756
P        -0.80733963409076   -2.00651216349989    1.70369421407358
Pd        0.41852569311213   -5.58185837384359    4.07380945320817

