147
CSD_code = HOXCAZ | q = 0 | S = 0 | Stoichiometry = C74H60O6P6Pd | MND = 4
Pd        2.49897400860806    1.54238522794230    6.26088147412899
P         1.68775215238841    2.84118652604424    7.92395917299719
P         0.86235241690777    0.36282569264452    7.28251752650162
P        -0.34760433117779    1.60001224952268    9.91993285064555
P         4.00576902763323    2.77248655335689    5.09996669431270
P         3.43853119546383    0.14517237358502    4.73423826258043
P         5.29530437603120    1.44889403545012    2.58186705092362
O        -1.44511237590760    0.62596259438597    9.95194572658659
O        -0.74482136626650    3.15667927276813    9.79077221885510
O         0.44669083027345    1.71303605286817   11.34465032058873
O         5.72954145715165    0.12514011644721    2.11868367843795
O         4.77139493087567    2.41265477594489    1.37094420423000
O         6.42987403265640    2.43847348010876    3.15644682196906
C         0.68180343498489    4.29645870625988    7.52534145913006
C        -0.60219726517469    4.11123760981811    7.01881651256615
H        -1.02564893897243    3.11416114994851    6.99087037275986
C        -1.33237504417129    5.19696989317111    6.57629837832398
H        -2.33363549564658    5.05268393148002    6.19687435375941
C        -0.78020392873032    6.46846798531100    6.62141162915639
H        -1.35344287231069    7.31748044606453    6.27859497977144
C         0.50675325262308    6.65198956835416    7.10179328109174
H         0.93760899405884    7.64265927607086    7.12683649691517
C         1.24399206605865    5.56963512282791    7.54602011468772
H         2.25456701128800    5.70317566380928    7.90963912665444
C         2.94361776411985    3.35715772813317    9.12030762370147
C         2.68042997858883    4.17188271430664   10.21605327589568
H         1.70284134629857    4.61879745151328   10.33234930225687
C         3.67692332790159    4.39228239947153   11.14999512218006
H         3.47993889777966    5.02137898729279   12.00596776898917
C         4.92400593681634    3.80495717821484   10.99637588540585
H         5.69542065111442    3.98607645540669   11.73062333194700
C         5.18197558848251    2.97986772323180    9.91237032267625
H         6.15199776463819    2.51842306769582    9.79575090377378
C         4.18902639730908    2.74865009166168    8.97923856341131
H         4.36801798832142    2.09125533420044    8.12066938977431
C        -0.57037688108081    0.54475634074831    6.16987288355007
C        -1.86196566638273    0.23937888488195    6.58749367100439
H        -2.01561313810108   -0.17777813551550    7.57311719773177
C        -2.92601691275094    0.50320466422020    5.74433346750284
H        -3.93249535933016    0.27595182635901    6.06385837741471
C        -2.70579463404773    1.06240232789548    4.49400360524285
H        -3.54315760110366    1.26620985967918    3.84241342154232
C        -1.41867670178989    1.36399313587600    4.07641959636302
H        -1.24992429576968    1.79604626824920    3.10031608091117
C        -0.34854322802802    1.11104826531611    4.91490610906817
H         0.68092998065549    1.33447324957288    4.58625749776110
C         0.80532249065175   -1.36290918232824    7.79841105578048
C         0.71837650504604   -2.33663061676303    6.80531277746050
H         0.64624424611431   -2.03250789847188    5.76675196906679
C         0.72794862667782   -3.67128939440199    7.15764592899873
H         0.65846197763470   -4.43168166425309    6.39318355726628
C         0.82781594732749   -4.03435344458145    8.49343924366011
H         0.83214965145847   -5.07969282109713    8.76597997542936
C         0.92584374979012   -3.06429193100013    9.47765863365523
H         1.00583772102043   -3.34618866723159   10.51719832076324
C         0.92525834950704   -1.72515091816692    9.13187521226251
H         1.00553922418513   -0.95517544134950    9.88589539794368
C         0.90564692678597    1.43712097907886    8.68472407435311
C        -1.64417466255643    3.83044867929838   10.57778567169153
C        -1.83802286433068    5.17813325398714   10.29390936437389
H        -1.28893362408898    5.62852232455370    9.48094307423914
C        -2.72743236365579    5.91655538370370   11.05204952333520
H        -2.87547530928988    6.96273713190903   10.82825994641665
C        -3.42337051319421    5.32166058375645   12.09126946390939
H        -4.11713772351399    5.90167616257545   12.68098733663145
C        -3.22447265328634    3.98070960017527   12.37001353893283
H        -3.76304900019719    3.50994695590606   13.17899579687526
C        -2.33566878717958    3.23220787197951   11.61853629602541
H        -2.17517644321719    2.18603353515020   11.82289700811498
C         1.07289691571861    0.60327681023798   11.85687905259759
C         2.45309050602339    0.49173639010242   11.74056672710766
H         3.00068282218481    1.26589863475137   11.22435762823541
C         3.09645676300961   -0.60931252552569   12.27602226050271
H         4.16919250193720   -0.69553418478272   12.18488234878627
C         2.37142598156932   -1.59761738151124   12.92088598701308
H         2.87785703777423   -2.45661456748104   13.33551306289243
C         0.99570037503754   -1.48348756169764   13.02992639392860
H         0.42499284920393   -2.25346511582800   13.52780172424534
C         0.34132985964975   -0.38536819287315   12.49989564004967
H        -0.73144464511709   -0.28995818228147   12.56041532677494
C         5.57043702962172    3.29235276063800    5.85693411582121
C         5.71305218733393    4.58376940712599    6.35729052680366
H         4.93024760653093    5.31207343564758    6.18930860524371
C         6.85134542186249    4.92435940110078    7.06426041003849
H         6.96780063770634    5.92895629414811    7.44486589149705
C         7.83988292861202    3.97956914957442    7.29020703134539
H         8.72848224604755    4.25076954799785    7.84143903575151
C         7.68881433355808    2.68617144225038    6.81350082247443
H         8.45660095728680    1.94748892024950    6.99303276387732
C         6.55440082135815    2.33913624286358    6.10563351958775
H         6.42947298443960    1.33208610563384    5.72695273094932
C         3.30007802445545    4.22392085510174    4.27990791391049
C         4.04288105620828    5.12506719040346    3.52518385084034
H         5.11973334710026    5.03617360503569    3.48742279302550
C         3.38825294630903    6.12185442389845    2.82374083203584
H         3.95783021634433    6.82382408449830    2.23197153288125
C         2.00542248629436    6.21974811288524    2.87066196166168
H         1.50466146742998    7.00373425322232    2.32136633541652
C         1.26299023190095    5.31130631207190    3.60969417023300
H         0.18546222726299    5.38461616597773    3.64160389247811
C         1.90985631278214    4.30853731014335    4.30670095583452
H         1.34248833349852    3.57506639268674    4.89016676999237
C         4.69587293875336   -0.74952330635762    5.70552624294258
C         4.62541442180255   -0.64960525150811    7.09527812454587
H         3.75782717742212   -0.16216932232387    7.57171050307810
C         5.63047029033624   -1.19147154283773    7.87619811877974
H         5.57394042296589   -1.12022962323440    8.95297834672113
C         6.70755413586930   -1.82197314240502    7.27311854139285
H         7.49664010717181   -2.23862993156507    7.88227051094740
C         6.77971360919449   -1.91841002358540    5.89098990592099
H         7.62456551438034   -2.40654967747510    5.42740922377943
C         5.77756183036229   -1.38511523784855    5.10129030000379
H         5.82942889572262   -1.43237395257369    4.02246896412482
C         2.77557813756246   -1.05620233548300    3.56501923467042
C         2.12219423682077   -0.58818697220082    2.42985957849241
H         2.07274748990293    0.47747034113129    2.24586881872502
C         1.55674485400407   -1.48431034127582    1.54341917778657
H         1.06201207076123   -1.11886904638531    0.65582463728635
C         1.62647095268387   -2.84531918695179    1.79526622114353
H         1.18631195765352   -3.54535986348355    1.10015290203443
C         2.25495402522570   -3.31123891719347    2.93940627554049
H         2.30162281504243   -4.37263323872068    3.13672987233581
C         2.82437509281669   -2.42150634972538    3.83075025132251
H         3.31026341287849   -2.77720344645684    4.72981308249803
C         4.04638183498317    1.53538969806984    3.82706847290069
C         7.61498503766884    2.75476469539845    2.54237859891667
C         8.48571144248148    3.57801245333446    3.24863671963614
H         8.20218873922578    3.92165334186422    4.23202408343213
C         9.69450857096574    3.94044125336801    2.68430649533870
H        10.36794162047547    4.58004391673020    3.23563373831767
C        10.04078555431727    3.48853204847766    1.42161602874928
H        10.98609206289239    3.77325749550737    0.98471146564219
C         9.16889238616234    2.67163926216467    0.72307849698548
H         9.43138461535528    2.31589113222734   -0.26216088607757
C         7.95519302137391    2.30416165405077    1.27735714730785
H         7.26843897985216    1.66639998976147    0.74427943728364
C         3.68874857498069    2.03538978785984    0.61558070000278
C         3.77564169999092    0.97745321396443   -0.27765026832829
H         4.69494011745781    0.41723249822198   -0.34009432907510
C         2.68071296093941    0.65037736589155   -1.05752327046365
H         2.75018578361071   -0.17275490569249   -1.75320377291083
C         1.50271299433375    1.37024996243331   -0.94765642326277
H         0.65117715404826    1.11311188709282   -1.56049610135058
C         1.41791904731456    2.41972626162828   -0.04785074063887
H         0.49988709881342    2.98127209640588    0.04699224953409
C         2.50638427009237    2.75499066370759    0.73735790215350
H         2.45548702848807    3.56571445513174    1.44855353539061

