119
CSD_code = HOXCON | q = 0 | S = 0 | Stoichiometry = C54H52NiO6P6 | MND = 4
Ni        5.14048533614693   -0.00000002529263    0.00000356463906
P         5.71868952021191    1.72142191176284    1.18213728326452
P         4.54009199324652   -0.59321871873101    2.01569230111003
P         5.55662758454807    1.19948116045329    4.30476720149859
O         5.08673390953017    2.34627892036860    5.07758547098398
O         5.05699137985393   -0.25007580007641    4.87487571058472
O         7.17100134808421    1.13779131071684    4.46581593234821
C         5.70973258702621   -1.95730411353266    2.33331300246802
C         6.79286292200058   -2.00942973290249    1.45738202244915
H         6.85705388237390   -1.27030293812151    0.63859201683952
C         7.76961289055883   -2.97261169844673    1.60477791341027
H         8.60430232942507   -3.01270572205302    0.92089068652532
C         7.66295910127234   -3.89888766261901    2.63084839550027
H         8.41879614274987   -4.66125183217549    2.74731796777688
C         6.58864584834438   -3.85120557355979    3.50459354960443
H         6.51237460791746   -4.57630076474118    4.30228898519637
C         5.61023171115630   -2.88273225489862    3.36357804882884
H         4.77439347933364   -2.83920073278085    4.04640166070647
C         2.99921246887426   -1.07303258548631    2.83307844376685
C         2.46647136638629   -2.34004413326815    2.61245474015724
H         3.00532048342964   -3.03780191248695    1.98573194391882
C         1.26729871530632   -2.69837234281449    3.19720043578868
H         0.85753079796785   -3.68397535736958    3.02897224197925
C         0.59006123114361   -1.79117367788664    3.99788586500802
H        -0.34699067463187   -2.07214092313987    4.45613330034667
C         1.11110029619821   -0.52386517349270    4.20719701405014
H         0.58144663177078    0.18192395363963    4.83051488522902
C         2.30677015791135   -0.15774482529770    3.61639106337669
H         2.72713381971082    0.82646274506562    3.77497723475182
C         4.92846426629125    3.35008739162710    0.97543927736916
C         3.70051622057704    3.61218583767448    1.56928614140691
H         3.26084639518353    2.86377401267464    2.21388179153557
C         3.07011672087859    4.82233768071036    1.34748758515502
H         2.12185727386847    5.03037724447584    1.82151169327670
C         3.65078707921405    5.76669115658461    0.51701562560646
H         3.15292374148080    6.70831421541625    0.33739787738032
C         4.87451388935898    5.50776302158559   -0.07983972542033
H         5.33073999770380    6.24694473279367   -0.72240566690947
C         5.51227656397840    4.30439613449964    0.14820058097422
H         6.47587864366102    4.10147907899155   -0.30014555237029
C         7.45798084628758    2.19179967301940    1.40172377766660
C         8.45120269322994    1.54131278161343    0.67908601781982
H         8.17010445087640    0.79395820328146   -0.05759480061934
C         9.77959510439627    1.86014139449654    0.89242529682362
H        10.55241724085014    1.36371212763896    0.32351152084638
C        10.11276507268918    2.81683532791580    1.83772377427734
H        11.15041484598174    3.06403012018823    2.00894306981927
C         9.12182078861126    3.45799014310994    2.56679551825144
H         9.38854670086994    4.19758784600004    3.30700634332524
C         7.79141423823441    3.15208190338041    2.35149560537609
H         7.00798701535516    3.63886846143423    2.91650397287944
C         5.00291684245064    0.99601921555346    2.63192957973085
C         7.94316373927674    0.06319190473940    3.99090707819307
H         7.61717587091511   -0.88364368035922    4.42852789971360
H         8.97492311390640    0.26908929595478    4.27655159096582
H         7.87978869066805   -0.01630711683678    2.90166448064561
C         4.70163424869503   -0.35194517459419    6.23717374456805
H         5.46997990170543   -0.90324600215410    6.78480575741329
H         3.75108330401956   -0.88644476892900    6.30016446192122
H         4.59134634217048    0.64466794029980    6.67144322658128
P         4.56228729062142   -1.72142124836909   -1.18213741569101
P         5.74089520922548    0.59322950059757   -2.01567661647531
P         4.72442981223914   -1.19949911609114   -4.30477395047822
O         5.19432675439186   -2.34630726603050   -5.07756714274824
O         5.22409200497573    0.25006371428430   -4.87487749163791
O         3.11007429372534   -1.13778437517962   -4.46584715154513
C         4.57124058325656    1.95729950852906   -2.33331891675080
C         3.48811266586681    2.00941679500964   -1.45738675621114
H         3.42392047693449    1.27028010456496   -0.63860353531633
C         2.51135965547203    2.97259638976873   -1.60477920924561
H         1.67665076940844    3.01266301917654   -0.92091141257086
C         2.61801511932709    3.89888232408771   -2.63083914856534
H         1.86216702794166    4.66123422416210   -2.74731463324437
C         3.69232519491495    3.85120580875905   -3.50458695932600
H         3.76859869952246    4.57631070058670   -4.30227319867644
C         4.67073767622059    2.88272835005511   -3.36358155049806
H         5.50658900125309    2.83921496598089   -4.04639341430433
C         7.28176950887801    1.07305025321104   -2.83306770976925
C         7.81450062037417    2.34006442733490   -2.61243321329030
H         7.27563905074012    3.03781487979918   -1.98571219205205
C         9.01367918118548    2.69840252211969   -3.19716151651413
H         9.42342536109433    3.68401437617445   -3.02894645596896
C         9.69093044006589    1.79121102175217   -3.99784158029595
H        10.62796810513299    2.07219500019738   -4.45610689836593
C         9.16989613564981    0.52390299972647   -4.20717237509925
H         9.69955351576228   -0.18187465685439   -4.83050074167315
C         7.97422158030127    0.15777093779131   -3.61638172752461
H         7.55388189750177   -0.82644676047975   -3.77495360389881
C         5.35251753152477   -3.35008246969724   -0.97542971470113
C         6.58045426420773   -3.61218668957837   -1.56929600927101
H         7.02010546801752   -2.86378536856719   -2.21391571456116
C         7.21085012254224   -4.82234183454905   -1.34750878871493
H         8.15910306522216   -5.03038384105713   -1.82154565263153
C         6.63018931526282   -5.76669064793635   -0.51702516163986
H         7.12806618499424   -6.70830448192296   -0.33739353429074
C         5.40647553017106   -5.50775477569456    0.07985302205535
H         4.95026974626521   -6.24692453829661    0.72244724469420
C         4.76871503349126   -4.30438615908108   -0.14817881838713
H         3.80512045412711   -4.10146250893168    0.30018183203985
C         2.82299614847827   -2.19180051580783   -1.40173940881758
C         1.82976935535740   -1.54132413771675   -0.67910028578948
H         2.11085880794796   -0.79397219196686    0.05758762157733
C         0.50137940307859   -1.86016537508969   -0.89243789062104
H        -0.27144756870577   -1.36374414042790   -0.32352152234900
C         0.16821618444864   -2.81686172480311   -1.83773566396056
H        -0.86943090652120   -3.06406214817926   -2.00895798509846
C         1.15916660026087   -3.45800618057016   -2.56680843767157
H         0.89244677950961   -4.19760591044727   -3.30702089851694
C         2.48957032575397   -3.15208605277357   -2.35150899430074
H         3.27300122729254   -3.63886658174679   -2.91651858106271
C         5.27808131494433   -0.99600636365218   -2.63191553242213
C         2.33788286285369   -0.06320005053946   -3.99095299023444
H         2.66387129023719    0.88364585739412   -4.42855268473319
H         1.30613715718922   -0.26910382667673   -4.27663237275483
H         2.40121912006338    0.01629494401945   -2.90170870673875
C         5.57949199164148    0.35192988740508   -6.23716332348937
H         4.81127026663362    0.90344015561401   -6.78477588546197
H         6.53017052498606    0.88623160287166   -6.30010448370992
H         5.68957105552415   -0.64468393589754   -6.67149058702539

