147
CSD_code = HOXCUT | q = 0 | S = 0 | Stoichiometry = C74H60NiO6P6 | MND = 4
C         5.54006124642336    2.75442570710202   14.43113007219993
C         4.68211312038872    2.07103643542758   15.28800906107805
H         3.63636945631223    2.34527713313514   15.31908153803633
C         5.17294883083422    1.06565730477282   16.09880260920291
H         4.50889105028272    0.54199105889487   16.77136749226293
C         6.51693127884933    0.72800384785274   16.04880628575427
H         6.89924256639094   -0.05730630633823   16.68444940868538
C         7.36989258224773    1.39595611409273   15.18395940481935
H         8.41726123760562    1.13284732251239   15.14803385880620
C         6.88273953537149    2.40048138193434   14.36786792709236
H         7.53676676872166    2.94041423783077   13.69681396468204
C         3.71342550772151    5.01354673566671   14.29623892248939
C         3.75682157334119    5.18881302821206   15.67328817548197
H         4.51071049599992    4.68607387699780   16.26169062826767
C         2.83092124987998    6.01671906491274   16.28253904429707
H         2.86659418117212    6.15974770440287   17.35299011158927
C         1.86210443011492    6.66282595905484   15.53215255985269
H         1.14355581458383    7.30624564540511   16.01825594942880
C         1.81445224376890    6.48845505342300   14.15731304978242
H         1.05695141341589    6.98903621331967   13.57129597565055
C         2.73756369986677    5.66572444556085   13.54524861994272
H         2.71116379007379    5.51685293398863   12.45072914814502
C         6.87418788802893    4.88833986605215    9.82448623592857
C         7.83391377209647    3.93460166898636   10.14131436860275
H         7.84388715033438    3.51669806315848   11.13863014713597
C         8.76363029983699    3.54700347197562    9.19494548313263
H         9.51695173426369    2.81436134789537    9.44631658704646
C         8.72779230824725    4.09342477190385    7.92251418355123
H         9.44826266741912    3.78301646249619    7.18010462656178
C         7.77089671019395    5.04321879793047    7.60173435609696
H         7.74807728295789    5.47401086617067    6.61104112722960
C         6.84542140000294    5.44004616369476    8.54751988286744
H         6.10584138664963    6.19364950249180    8.31084326164530
C         5.32173778069446    7.06895291959985   10.74527019364852
C         6.41639625167119    7.92728394007911   10.74171493109890
H         7.40922944435163    7.52833830427752   10.89677770055385
C         6.21714041030262    9.28076694301848   10.54486849172364
H         7.06261837239651    9.95226238124558   10.54164658210362
C         4.93722793896605    9.77790460335109   10.35233323109572
H         4.79041783583541   10.83648558195943   10.19814399338988
C         3.84791320654599    8.92281242195347   10.35905561589724
H         2.85139720636240    9.31052447116463   10.20545337029839
C         4.03903659473324    7.56814253583171   10.55722360074028
H         3.19674932168139    6.88265179890328   10.54882340206513
C         6.25880492833989    4.92954479794023   12.63839025094844
C         7.26079262886451    5.77175154512336   16.26306790493727
C         7.49873723426969    4.75947521468608   17.18807805469203
H         7.28996667637003    3.73737357065869   16.90957550537901
C         7.99870529435162    5.07439899397876   18.43729112243789
H         8.18310427085357    4.28530580692333   19.15128136106352
C         8.26630960176535    6.39188954683687   18.77162718962336
H         8.66153997995713    6.63421519037116   19.74655415203333
C         8.02439564121337    7.39543051812513   17.85006621571275
H         8.22821752564847    8.42516691846310   18.10354519695240
C         7.51793489314599    7.09182197762648   16.59832341391031
H         7.32140169751025    7.87072431708637   15.87832519259869
C         5.53820709853451    8.65455729012544   13.74632576069278
C         6.64901328352177    9.48456346919423   13.70885384303360
H         7.63807111907436    9.06013091788873   13.74880534075778
C         6.47405783980232   10.85345841524873   13.59988888925289
H         7.34281540132858   11.49462952659773   13.57259687142772
C         5.20589732899822   11.40131622597598   13.53007164150105
H         5.07899726884848   12.47046043056361   13.44847341721501
C         4.09985102655349   10.56889894092913   13.56864004542306
H         3.10469319214681   10.98532711051352   13.51575671862854
C         4.26051860739034    9.20138667760088   13.67647246497874
H         3.41053967640833    8.53761697213930   13.71295301822733
O         6.73780805616576    5.40161824971233   15.05524052331931
O         5.59914817776642    7.29432998960958   13.88363828960490
O         8.13693343835338    6.87454806360478   13.42304198937100
P         4.88020960484800    4.01774956943524   13.31964073993081
P         5.57296940488674    5.29578735956493   11.02736798627962
P         6.83781497057709    6.24502690542769   13.67431553394606
Ni        3.88149091509326    3.99773147551775   11.38521016599991
C         2.22310779644792    5.24106771985546    8.33914895563022
C         3.08114533979538    5.92418105727385    7.48214541024642
H         4.12689038165908    5.64990823145368    7.45125713409011
C         2.59045786789546    6.92949961630389    6.67119332070770
H         3.25464298176936    7.45310849111122    5.99869817683333
C         1.24654292309440    7.26740054377147    6.72118333681338
H         0.86434434002446    8.05265663996094    6.08540587763522
C         0.39349915372207    6.59973316821397    7.58615912068859
H        -0.65388423121099    6.86284431270882    7.62188360009581
C         0.88049848654484    5.59524628735333    8.40239214604177
H         0.22633380101292    5.05535981202600    9.07336450772595
C         4.04959845560674    2.98187991085947    8.47429228711939
C         4.00627224324821    2.80650196279451    7.09725664264255
H         3.25241538773219    3.30919580283222    6.50877338110647
C         4.93218587955859    1.97852661535613    6.48812272264751
H         4.89658817003859    1.83544487062693    5.41767517498954
C         5.90090343645401    1.33239822411859    7.23862312190278
H         6.61953315164769    0.68901112490512    6.75259338465463
C         5.94847112924663    1.50685935507508    8.61345417148271
H         6.70597775033717    1.00637523756696    9.19954033929438
C         5.02539395535754    2.32972182915533    9.22538975899554
H         5.05172185446963    2.47865177681784   10.31991167907792
C         0.88876771344923    3.10726873982691   12.94590341385214
C        -0.07094799382865    4.06100760927174   12.62905688862803
H        -0.08115553906866    4.47860416926712   11.63160826928221
C        -1.00067270805353    4.44862294963460   13.57541138773080
H        -1.75421457703080    5.18098799504877   13.32391096131955
C        -0.96482624697219    3.90224059050735   14.84785383804013
H        -1.68531111798786    4.21264879202663   15.59024644260712
C        -0.00792207789607    2.95245754765894   15.16866440167080
H         0.01506987909530    2.52190864448181   16.15946269501715
C         0.91753999401842    2.55559506626600   14.22288200459061
H         1.65733547345085    1.80224124455195   14.45967506448098
C         2.44105784210107    0.92655175437745   12.02506469768708
C         1.34631574399281    0.06833365956236   12.02858854000667
H         0.35352830658712    0.46738625138005   11.87351700619096
C         1.54543065001921   -1.28516981987770   12.22541176942886
H         0.69989039969128   -1.95658556118043   12.22853600318144
C         2.82529030951533   -1.78244314163199   12.41795178259658
H         2.97199663768682   -2.84104959902227   12.57205411142388
C         3.91468790003707   -0.92745954071105   12.41127835397956
H         4.91116405528513   -1.31527590906216   12.56486712731260
C         3.72370397678445    0.42723417842206   12.21314113544246
H         4.56606139081350    1.11263381090649   12.22158021151370
C         1.50409837128900    3.06608413841511   10.13201053946208
C         0.50219068397321    2.22382116616332    6.50731131679762
C         0.26421272730949    3.23609417591702    5.58230897799313
H         0.47296368164291    4.25819961407096    5.86080303957992
C        -0.23571611881929    2.92115074018086    4.33308507202441
H        -0.42013099431141    3.71023629617909    3.61908896036383
C        -0.50327842272311    1.60365329902245    3.99874425855523
H        -0.89847807538755    1.36131964407328    3.02380744504121
C        -0.26134552963226    0.60011805096190    4.92030552256126
H        -0.46512560142959   -0.42962605040968    4.66682487502787
C         0.24510210208195    0.90374181921084    6.17204920533652
H         0.44164064196521    0.12484686665650    6.89205523251016
C         2.22461504139617   -0.65899402561603    9.02403272047856
C         1.11377705042786   -1.48895995209156    9.06141539704520
H         0.12473831640768   -1.06448311757269    9.02150746777524
C         1.28868190441662   -2.85787239945154    9.17025055012785
H         0.41990325020523   -3.49901839523423    9.19744585626827
C         2.55681999098714   -3.40578258928227    9.24003559962482
H         2.68368281322672   -4.47493991577707    9.32151694891886
C         3.66289861553079   -2.57340373232467    9.20154800221964
H         4.65803874787856   -2.98987673262481    9.25438467545227
C         3.50228297882827   -1.20587655171918    9.09383782586883
H         4.35228218721860   -0.54212904496406    9.05743160499851
O         1.02517354556685    2.59394973540558    7.71514298829380
O         2.16373689531024    0.70125920823282    8.88694777193679
O        -0.37406627071000    1.12111908878558    9.34727982061814
P         2.88277395546215    3.97776026390025    9.45076233701209
P         2.18995296766782    2.69973915883585   11.74301264521547
P         0.92508845849226    1.75059944944317    9.09607900662986

