63
CSD_code = HOXDAA | q = 0 | S = 0 | Stoichiometry = C27H27Cl2NiO3P3 | MND = 4
C        -2.47423566393986   11.30973506160928    5.18067431442714
C        -3.48575097924032   11.51140803063814    4.24928284270580
H        -3.53970010049673   10.89546640630970    3.36415479138542
C        -4.42248105739725   12.50434720506684    4.46979062969736
H        -5.21499171787681   12.66130416613533    3.75210517708108
C        -4.34884174780993   13.29962832010545    5.60266666436252
H        -5.08885263977237   14.06906294724543    5.76820841452248
C        -3.31854214536115   13.12375205371172    6.51204390243095
H        -3.24578246802799   13.76009607091527    7.38127847507719
C        -2.37739799115053   12.13633029667222    6.29550331028890
H        -1.53855583851929   12.00896538501015    6.97973431618681
C        -1.15218497144224    9.70386667238506    3.24250372658538
C        -1.52980753812699    8.52942529999992    2.60410372228687
H        -1.92942070683446    7.69783863778514    3.16791816505644
C        -1.40206683323403    8.42549554845843    1.22954676248800
H        -1.70237092862566    7.51469118698836    0.73157146555400
C        -0.88421878314552    9.47851504809660    0.49388897586167
H        -0.78407604588772    9.38721175302762   -0.57739976049996
C        -0.48577507276952   10.64352409681069    1.13202224976654
H        -0.07031010863679   11.45940610440999    0.56002888786138
C        -0.61522885769081   10.75801614801050    2.50224683320280
H        -0.29083338517791   11.65075854295202    3.02143648912157
C        -0.46280286572631    6.95021172971152    7.80592123644784
C         0.70676222665142    6.82350383193269    8.55143362914217
H         1.24589182247606    7.71603624462723    8.84229971731889
C         1.16807687586555    5.56697447098293    8.89865565747736
H         2.07636929155169    5.46745055119477    9.47347363085703
C         0.46748615169181    4.43883222178275    8.50294583875666
H         0.82884762896896    3.45686939246645    8.77036278687192
C        -0.69609945964696    4.56547296805096    7.76069101613358
H        -1.24189685916687    3.68471355043672    7.45533905841315
C        -1.16657345246753    5.81779534489650    7.40756205052398
H        -2.08024758959914    5.90915028521696    6.83534585373620
C        -2.19233387343171    8.96412695832415    8.76911848580363
C        -2.12887450072227   10.19685239515549    9.40915882018026
H        -1.36431602268093   10.90728891923131    9.11870880181663
C        -3.01662035433717   10.49358486249709   10.42759579887203
H        -2.96709450250927   11.45147131871412   10.92364005061950
C        -3.96167612679949    9.55737762607247   10.81241073751525
H        -4.65800604664897    9.78694876616637   11.60576346349124
C        -4.00614967472812    8.31765931969284   10.19252927190318
H        -4.73259507175322    7.58265440400471   10.50650042998156
C        -3.11978603258343    8.01115793739329    9.17681832495175
H        -3.15179536128843    7.04073053439019    8.70691944300345
C        -1.97885366700175    8.48111032086574    5.83407409120821
H        -1.59644964805546    7.59621699765667    5.31129877504372
C        -5.42941271445006    9.81135729185858    7.29527305645136
H        -6.09985342958011   10.26750587743291    6.56434066065810
H        -5.33429364480388   10.45963087337551    8.16558263995878
H        -5.82218229952494    8.83796470210549    7.59692442480261
C        -5.06557827733583    7.77068217067567    3.68451423856671
H        -4.51968453558556    7.45244046011494    2.79472540300888
H        -5.98516480515622    8.27487421653247    3.38545120539353
H        -5.30759208374531    6.90456192892984    4.30331263200326
O        -4.37946359025746    7.10798303675167    6.42024573544751
O        -4.13139920786970    9.66946520920247    6.74545356437955
O        -4.26385006309949    8.68524904951537    4.41149309864242
P        -1.23486360508184    9.99691685798689    5.02566358239498
P        -1.00473895856622    8.64182700287566    7.43305819812966
P        -3.77788753036232    8.34679526245677    5.91753597800207
Cl        1.17110770682798   11.74761762314834    5.54449137206474
Cl        1.39009226855873   10.42026286288899    8.32491639625564
Ni        0.22082746313328   10.22952964034429    6.60924048830275

