83
CSD_code = HOXDON | q = 0 | S = 0 | Stoichiometry = C42H38P2Ru | MND = 8
Ru        0.51472049554909   11.55767044051237    3.30381629755338
P         0.72255853080182   13.71567081700071    3.83830064686632
P        -0.13188124817954   11.32531291923602    5.41991519717487
C        -0.95886664927855   14.30653512377339    4.39429039200792
H        -0.82387238836432   14.77853491840160    5.37206457286309
H        -1.29613484381145   15.07239001399812    3.68849024240900
C        -1.78244367708335   12.16139570755535    5.55447486688461
H        -2.53157442223733   11.36845859886873    5.44267453205170
H        -1.88702781262297   12.56842833825766    6.56428917332914
C        -2.49851794975887   12.66796248572287    3.14862068214383
H        -3.41672375624725   12.08923845451613    3.30044995389196
H        -2.73829407065207   13.50196617256676    2.47995344191471
C        -2.09016985704589   13.26605249892627    4.52291043775137
C        -3.32407841872527   14.02600350768287    5.04260357481074
H        -4.15590050701155   13.34181073882893    5.20061007163936
H        -3.64045075591441   14.78342923301803    4.32754624070448
H        -3.10914713211466   14.52166773437999    5.98787153241450
C        -1.47226716271090   11.79747216917535    2.49406566011015
C        -0.55775482320386   12.19757995923727    1.48107535186981
H        -0.55106836193957   13.16463468859729    0.99038159952392
C         0.24287357227108   11.08762322098987    1.12204927572196
H         0.93149935693505   11.04275569720362    0.28777543613360
C        -0.20344370902602    9.96933500457182    1.89180828726143
H         0.09331920566684    8.94026813696554    1.73183271547313
C        -1.27675827659501   10.40606790061054    2.70578615438388
H        -1.90325712269439    9.76398223595694    3.31532490360342
C         1.18558273901181   14.84623954070514    2.47586662674856
C         2.13111123784665   14.32639266250595    1.59537288183894
H         2.47619531522133   13.30835715467180    1.75245939900927
C         2.60650846569766   15.08933598901783    0.54627126481794
H         3.33705669452955   14.67776050058420   -0.13462266746672
C         2.14109873251791   16.38260362094138    0.36796672854971
H         2.50311071240535   16.98112134616725   -0.45513086581084
C         1.21295892582204   16.91037841862258    1.24962480535101
H         0.85564773350171   17.92160905942513    1.11583757653293
C         0.74037831276004   16.15123780233893    2.30638898264846
H         0.02590215580688   16.58808891252801    2.98999450787799
C         1.84399990625413   14.44175465371123    5.08642139841747
C         2.99855611995352   13.72224573798569    5.37522781862106
H         3.13579574701426   12.75603167411926    4.90207568229586
C         3.93010562985949   14.23292368990079    6.25982562426773
H         4.82385022333990   13.67015445684334    6.48463506704696
C         3.71954166155015   15.46550912418503    6.85492112108658
H         4.44388365071770   15.86387854810011    7.55033275207520
C         2.58238320293032   16.19509841167296    6.55056903139017
H         2.42454760674487   17.16397080315556    7.00308285875224
C         1.64966628251600   15.69268183377952    5.66184375442807
H         0.77713322658536   16.28339023697504    5.41929388812247
C        -0.50441118757362    9.65153231426065    6.04037100002682
C         0.08420973309834    8.57570396583817    5.38698986878037
H         0.73007081435628    8.77534986326902    4.53782636563870
C        -0.14896505620657    7.28470190240167    5.82567144677062
H         0.30949971115867    6.44937776154324    5.31686566069416
C        -0.97050750702805    7.06546110677918    6.91921716349405
H        -1.15850749610234    6.05816343556935    7.26116800943290
C        -1.54741304036749    8.13753138415355    7.58232517140412
H        -2.17947945675241    7.96359499715601    8.44141189451901
C        -1.31249648314757    9.42987530683665    7.15047946445296
H        -1.74976733885845   10.26761503292037    7.67655848827266
C         0.83160332869214   11.92561850537121    6.84606263405697
C         1.97591547608596   11.17355411382782    7.11208809778999
H         2.18988345866984   10.31602935434861    6.48709881394643
C         2.82743804949752   11.53483413876075    8.13623407896685
H         3.70785445522468   10.94320215452695    8.34007953752234
C         2.55364576030461   12.65915901472626    8.89990215448307
H         3.21915475249024   12.94721413149557    9.70028543776069
C         1.42832517622257   13.41753365974932    8.63150532737976
H         1.21833844254003   14.29951184423439    9.21961360710470
C         0.56836423182222   13.05565469139103    7.60902765168870
H        -0.30113333198435   13.66756257622780    7.41549647233072
C         2.39165526033650   10.92026347247784    3.67422157778219
C         3.47297022355012   10.39985110807673    3.86091325136409
C         4.73777511028735    9.83063238089568    4.13875064564892
C         5.44856055423729   10.23007732076854    5.27488923780794
H         5.02009376949823   10.98347344343558    5.92198222076223
C         6.67590684685519    9.66870764715614    5.56333815717657
H         7.21840994606005    9.98402093232980    6.44477431734351
C         7.21769149306714    8.70215470461476    4.73003538109601
H         8.17857020232782    8.26380618031110    4.95954493491454
C         6.52091558026046    8.30086482901585    3.60109219454693
H         6.94149789030656    7.54712020296383    2.94913233841332
C         5.29257714334759    8.85714272609522    3.30448273382822
H         4.74760098912165    8.54489290200543    2.42442518570358

