71
CSD_code = HOXFOP | q = 0 | S = 0 | Stoichiometry = C34H33ClP2Ru | MND = 8
Ru        0.97480150133878    9.02186821577351   14.14229911643234
Cl       -0.00589364755098   11.19231531363267   14.26470857761758
P         3.08739034073007    9.47151993800447   13.56639628457842
P         0.70240771865287    8.65893553875473   11.96123085794357
C         3.76849185805044    7.94965238668030   12.73782803267177
H         4.14430580828838    8.26554349992486   11.76042190177130
H         4.61502194807917    7.59205868979206   13.33127142961575
C         1.63268912441009    7.10177442731416   11.58630884666908
H         0.89799969111949    6.29094854957477   11.64541889002675
H         1.98623902755011    7.14762216991498   10.55279143192750
C         2.32960466055482    6.13117979774976   13.85321183560277
H         1.83398619835887    5.18447716588672   13.61298329390329
H         3.21506931348424    5.90177896240317   14.45455206082428
C         2.81447172169643    6.75760319934476   12.51667520932570
C         3.63672806567696    5.66754018768286   11.80581504577880
H         3.00858030844162    4.81305322672942   11.56156202234347
H         4.44831407543551    5.31983441243846   12.44202963854976
H         4.06952605701493    6.04535667672544   10.88132006021781
C         1.39857170092229    6.97888685981666   14.66403559914186
C         1.75234566320389    7.75295827254119   15.81301268796868
H         2.73430077226577    7.78157739374091   16.26865623713198
C         0.59799491862249    8.39514611609669   16.29295375281364
H         0.52247656028522    8.98129157783369   17.19948212020410
C        -0.50815792236093    7.96817365360543   15.48873362430614
H        -1.54902668582030    8.17428048255676   15.70172049457992
C        -0.02084361609284    7.06291954977902   14.52681881980337
H        -0.62514721668937    6.48417273302605   13.83872630518563
C         4.19584073097772    9.82818551963127   14.97242391580875
C         3.62628128887722   10.64793755828734   15.94483478080938
H         2.59510164271120   10.96386221185692   15.81940975426645
C         4.36105770495866   11.04282860052182   17.04559403148231
H         3.91273290815078   11.67618989280148   17.79681222845281
C         5.67411290582631   10.62098761326653   17.18471664020813
H         6.25085571184908   10.91962433146043   18.04778145870035
C         6.24955660889279    9.81912012111845   16.21363340652651
H         7.27582939829101    9.49689810693903   16.31858127324807
C         5.51916237149319    9.42828278285747   15.10433709660032
H         5.99167939010031    8.81351891762387   14.35106654173743
C         3.66742978831185   10.82966695535351   12.49465684872274
C         2.85867371792799   11.95869737960097   12.42151110842557
H         1.90874593318806   11.96224970406787   12.94224773956145
C         3.26507474251472   13.05189750337405   11.67857875551152
H         2.63156294115501   13.92393283317919   11.61965230187762
C         4.47912514889138   13.02693771998779   11.01338147230472
H         4.79446482279711   13.87762592928946   10.42689745670677
C         5.29760221612509   11.91306011850132   11.10637636982857
H         6.25238991441387   11.90000907796797   10.59967592046692
C         4.90122029260409   10.81866495897627   11.85210957621392
H         5.55787743597815    9.96344004965635   11.93476157263145
C        -0.97519907659722    8.27823461445454   11.36662238972684
C        -2.04472159253866    8.74295932148151   12.12301606538113
H        -1.84083950392132    9.29734628396909   13.03272617843488
C        -3.34292540264371    8.50590953945554   11.70863456534104
H        -4.17311308252710    8.86846372223773   12.29681350915798
C        -3.57544257283327    7.80399571312327   10.53740012273950
H        -4.58814950802905    7.61362523274193   10.21322054141372
C        -2.51061953034141    7.35048078341997    9.77407215085993
H        -2.69614837706055    6.81217645828525    8.85561023527485
C        -1.21115762137106    7.59008723952346   10.18099189204241
H        -0.38014667431454    7.25005607199988    9.57838656322637
C         1.19100930652379    9.85717529685028   10.68085093014252
C         0.40226894253036   11.00785380179457   10.66753591795317
H        -0.40236950049980   11.09639273530577   11.38684401566828
C         0.66982812228150   12.02645110915770    9.77593921933432
H         0.05376005519424   12.91313769863738    9.76901508087239
C         1.73603319817551   11.91356595727641    8.89703181443507
H         1.95205235686847   12.71077964527694    8.20113675766172
C         2.53164385848035   10.78220012147533    8.91781430792710
H         3.37007340559463   10.69887747457217    8.24124183582849
C         2.26330585220498    9.75395627890987    9.80471490586510
H         2.90123178311647    8.88168801641776    9.80467657368675

