57
CSD_code = HOXKEK | q = 0 | S = 0 | Stoichiometry = C21H30NPPtS3 | MND = 4
Pt        5.32073261288702   16.44357231659625   11.32130023218973
S         3.82120969133566   16.65204947863997    9.50671600872938
S         3.58951785216837   15.90791337578420   12.66373055420415
S         6.48848403972296   16.75064437161569   13.37596365818286
P         7.58196704879009   15.58122753851423    9.63204517485529
N         6.96217095723308   16.96400732778352   10.14793370998325
H         6.69974591419868   17.61024317454722    9.40658741101509
C         2.29589440044222   16.62667789436744   10.33232995076924
C         1.13608420453580   16.89612962049926    9.59743235669353
H         1.24076090638308   17.15237042804198    8.55385979386336
C        -0.10594136957042   16.82721747297970   10.18771737326488
H        -0.98703809303561   17.04480231523277    9.60236599201050
C        -0.23522035183322   16.45895962914609   11.52140417556578
H        -1.21062038322990   16.38055900762727   11.97606745802558
C         0.89784146976855   16.18110181017165   12.26190068413513
H         0.81787826101363   15.85784171144828   13.29002188242055
C         2.15190685883434   16.30514579874124   11.68432320983903
C         5.15169214175799   17.60445122834081   14.10233243494277
C         5.38355051392430   18.58503978542461   15.06490865908249
H         6.40246279091390   18.78466173574156   15.35998357586362
C         4.33290707854132   19.30035797841215   15.60446565281588
H         4.53111831392316   20.06884455195624   16.33694127924262
C         3.03108125595385   19.05020321719743   15.20001930895528
H         2.21143477732286   19.62491794305312   15.60310298183997
C         2.77536882530612   18.04598310413537   14.27899159596266
H         1.76182747916960   17.84206551340021   13.96804436158642
C         3.82553837529812   17.33293014738770   13.73997361088036
C         8.97487252662295   15.93653535171120    8.49349103312603
H         8.55868273278302   16.46627841167845    7.63107737905468
H         9.62092274655480   16.63945026741164    9.02778010075794
C         9.75956844134746   14.71047572091050    8.04123553746637
H         9.09801466039162   14.02431882617303    7.50928100954871
H        10.15461599036395   14.18516212438719    8.91260062866185
C        10.91361573422640   15.10680585535225    7.12744012889154
H        11.60035815530603   15.77188057120566    7.64621474203957
H        10.54283543501771   15.62046511430549    6.24314533592384
H        11.46511917269703   14.22657171285796    6.80660150507047
C         8.21244731510439   14.68107446464664   11.08400514483109
H         7.35424680563764   14.57459461196277   11.76100575487112
H         8.54881611436475   13.68556820347662   10.78418158431483
C         9.31938203044103   15.46462416546450   11.78379010918133
H         8.97251454229991   16.48915588316783   11.92934359688981
H        10.21508097824979   15.48577574718105   11.15822008262756
C         9.65294930124632   14.85047407476163   13.13653941710721
H        10.46165847226714   15.39898291241565   13.61202410758530
H         9.95776164622492   13.81132594619456   13.02606505451484
H         8.78221346244805   14.89430797143148   13.78481168180704
C         6.45094425487284   14.39199017615151    8.78773016383565
H         6.92445969180224   13.41293232322939    8.70093809954796
H         5.58347352620118   14.30379865568583    9.45682994676668
C         5.99902217117508   14.91197761863213    7.42613174538277
H         5.68139016876437   15.95276133262925    7.53261146861675
H         6.83043245694851   14.87766661781529    6.71791245286229
C         4.83173672407744   14.09626964261339    6.88601966724408
H         3.97558622161419   14.19336338148870    7.54845785485200
H         5.09820997335212   13.04389971381535    6.81038142861870
H         4.54371297578059   14.45209412458128    5.90017015118522

