67
CSD_code = HOXTET | q = 0 | S = 0 | Stoichiometry = C30H30N2O4Ti | MND = 6
Ti        3.86365652856461    1.45107561952225   11.54226119654884
O         3.85895208942281    2.69059491350621   12.93850264135365
O         3.13376769150724    2.83560421271920   10.52258086802473
O         4.97914027657917    0.36620892348045   12.43327384649837
O         3.38960249343018    0.23005462890531   10.31726317024831
N         2.27512242307253    0.64868688974575   12.58477731884522
N         5.56239812817076    1.88016235160772   10.45370332010947
C         2.85707179246801    1.51198294150784   14.74726278234052
C         4.48223393658489    2.88996517884683    8.56232257742847
C         2.49452710031509    1.24111308076450   18.98761543813408
H         2.39652930072413    1.17376503249309   20.06075991241083
C         2.71827536105663    1.39305787426769   16.17234674210759
C         6.72885916567608    1.34246251211533   11.12467246779167
C         3.67692722508091    2.53463789523394   14.19891522707576
C         3.22703712577504    2.24474458391769   18.41221923785615
H         3.72261148104494    2.98316145332161   19.02674072150808
C         3.35805474145553    2.33838719938550   17.01639248003037
C         2.13737502511319    0.65703410268700   13.86132901128081
H         1.38686380578657    0.01032232318987   14.31928209702624
C         4.66505493380232    4.03551228898938    4.45864409360826
H         4.71603188625926    4.32953133786688    3.42098532065605
C         4.29543190834440    3.46565376485906   15.09574445778082
H         4.89387640406689    4.24840199714741   14.64974782793474
C         6.17283736960004    0.07055593540202   11.83271447227787
H         6.03401840402026   -0.71806257038297   11.06353490340343
H         6.90657008120448   -0.28923329636086   12.57793295574471
C         5.59374168000023    2.31549076942271    9.24600355783529
H         6.53923479709083    2.30135674084297    8.70104410793580
C         2.56205904426651   -0.77785647918030   10.73206192276727
H         3.14143647803131   -1.55737921539097   11.27019792729502
H         2.05592053534429   -1.24824177405570    9.86845679724501
C         1.49479545222754   -0.20677175048286   11.71410465461168
C         4.13666079943246    3.37287573487486   16.43709504970958
H         4.61124445203769    4.08655645570687   17.09671780184331
C         3.28929596137123    3.15058550587477    9.28893874692132
C         0.72559157890700   -1.34565843370294   12.38998244447177
H         1.38678288501139   -1.93516318233428   13.02273633443246
H         0.31915542993467   -1.99810890979480   11.62062957449191
H        -0.10490844919821   -0.96834553273454   12.98405190039770
C         4.57245538828576    3.26078520444508    7.17708255374277
C         3.48532903200921    3.93745235504004    6.56434932054136
C         2.32307502820112    4.21935097008903    7.32715667088433
H         1.50810205493147    4.74075878818820    6.84378736527570
C         7.91995100749196    0.98091627788287   10.23229827353394
H         7.60564392426984    0.33752975936807    9.41236472833650
H         8.65207123575923    0.44085704522560   10.82820142695080
H         8.40311563916198    1.87032181294311    9.83171241968525
C         1.87924287825324    0.29184567912473   18.16837937901823
H         1.31312600189034   -0.51153441360453   18.61763371362415
C         2.22401367760794    3.84053739146246    8.62314882371840
H         1.33716664415799    4.04730286221140    9.20659529984038
C         5.68529747127859    2.97180687925793    6.36202922073708
H         6.52597789606419    2.42715849752885    6.76214288329546
C         0.53629631293093    0.70304730597811   10.93163841940497
H        -0.15409931831141    1.19774136936693   11.61425850134491
H        -0.03227260812537    0.12057044711572   10.20945321227774
H         1.12379931068644    1.45766051193492   10.40589620244304
C         1.99032183661770    0.36417499120328   16.80308675058931
H         1.51354143706784   -0.40413422811610   16.21500540460762
C         5.73176880645390    3.35008347266627    5.04430695112307
H         6.60171145388543    3.11162632800731    4.44927999182684
C         7.14500475338103    2.36396194909745   12.19336579118893
H         7.43183483598735    3.30440624530974   11.72363498079566
H         7.98430684647669    1.98383737604779   12.77234033512025
H         6.29696948251223    2.53851523656554   12.85756456182004
C         3.55774883469620    4.31685105658053    5.21341691651350
H         2.71476281280035    4.83474772529952    4.77792399377914

