49
CSD_code = HOXTAP | q = 0 | S = 0 | Stoichiometry = C20H22ClNO4Ti | MND = 6
Ti        0.85826071995931   11.33008138787689    3.02721602155322
Cl        2.99792769100684   10.73638766071102    2.66249166711989
O         0.29048960678267    9.54349489552289    3.14332250339710
O        -0.99722893614951   11.90185347540352    3.44614203365647
O         0.49914516169299   11.44957731907038    1.32494638838833
O         1.22470905736997   11.64378524305323    4.76191373322659
N         1.47030853774443   13.28163383900075    2.74511523919954
C        -2.02412908243290   11.22485769806819    3.16907294919665
C         2.15695727754061   14.00503946104231    3.55878117991276
H         2.52105077857386   14.97326343675779    3.21510352068410
C         1.97693295331048   12.43933360414022    5.44006959877411
C         2.48327132885059   13.65021997765512    4.90096078889154
C        -2.01759973826692    9.86215923775677    2.84805502860154
H        -2.95552740063002    9.38191671616948    2.61567873120606
C         3.58502929077209   14.11785918740762    7.05715135569716
C         4.64556535548614   16.49326766545854    6.09067835273438
H         5.06267544516912   17.41528588323738    5.71236906789180
C         1.19720088998092   13.73247190643758    1.38632263523059
C         3.87024765209217   15.71244602408500    5.27133559646416
H         3.70933602915187   16.04997083891779    4.26003065136738
C        -0.95818134981961    7.61741437238746    2.53504791128428
H         0.01519745207485    7.14993233907343    2.66787238837627
H        -1.68999517359303    7.13619976301710    3.18004083290269
H        -1.27765922959034    7.49113327286355    1.50232795423057
C        -0.85305422035358    9.09073079910653    2.85387033427124
C         3.05918628716262   12.90084775392522    7.56039181172129
H         3.29240225380851   12.62518469127119    8.57946941792474
C         4.38187024208772   14.93563641464496    7.87734913198759
H         4.57447224527906   14.61566315439258    8.89143886792527
C         4.90629979922757   16.10986383348061    7.40812039854971
H         5.51701977057799   16.73484750157125    8.04201665136628
C         2.28830448118947   12.09567959986896    6.79041369288080
H         1.88908640971745   11.16219882907810    7.16141746067256
C        -0.18454214758676   14.40224312869975    1.39056751885590
H        -0.17959833690667   15.27028936682209    2.04882434799969
H        -0.45183895431638   14.71958287158962    0.38489255339838
H        -0.92282346114199   13.68659127269592    1.75380901602948
C         1.12206258697631   12.41046189638715    0.56678102620313
H         0.57273917336994   12.57875763618203   -0.37567084594151
H         2.15167937077390   12.07978391289075    0.33170471803121
C        -3.36024222469704   11.93808015047256    3.19552786572306
H        -3.23504451332587   12.93391428440484    3.61441843000225
H        -3.74463960271191   12.02346412734061    2.18060385761860
H        -4.08183257520433   11.37960773854996    3.78619775203793
C         2.25592022801888   14.65959303027422    0.78172852178967
H         2.18283531793823   15.67029913726396    1.17807581963575
H         3.25165109516950   14.26359631614934    0.97286311473053
H         2.10497234406570   14.71146892350531   -0.29393238957052
C         3.30573011380718   14.50182842432207    5.71907479616763

