53
CSD_code = HOXZID | q = 0 | S = 0 | Stoichiometry = C19H23CdCl3N4O2S | MND = 4
Cd        5.43657499359675    0.91595537686283    4.91928834969905
Cl        6.53227404684596    2.90859910145211    5.85983782451682
Cl        3.34695864639997    0.54868789526354    3.91994148981693
Cl        6.80000358293454   -0.85353032444401    5.98105222419065
S         9.77387137650519   -1.03816255895489    6.67234674981983
C        10.30978838861181   -0.40831442474604    5.20214370117637
N        10.37114487952399    0.92762967752363    5.21423215543043
C         9.98000745458905    1.48999747862639    6.41106651857362
C         9.64356575124831    0.54995666451442    7.34007655511331
C        10.68021897616345   -1.33962561417077    4.07380751050894
O        10.78227297765950   -2.63946996747679    4.58528142794593
C         9.68699680602140   -1.23341198549142    2.92744867954655
C         8.37042918067512   -1.62933575360625    3.13170207432092
C         7.44310717874807   -1.51269830874518    2.11083275611819
C         7.82809438030560   -1.01192650215040    0.87856907158473
C         9.14485274906934   -0.64144542688818    0.66459520714772
C        10.07392255821648   -0.75355315717402    1.68448846775237
C         9.92823568803094    2.96017875559004    6.59590941262292
C         9.19513418185454    0.72751949791726    8.74398903115575
C         7.74784188887422    1.28237560590215    8.86311488032402
O         7.70618089423692    2.66609418844924    8.68631296510508
C        10.58442155690803    1.70925614708259    4.01628927242809
N         6.95272155477747    1.41750562598000    3.08575781193021
C         6.94609265269713    2.07794814591049    1.93022578661400
N         8.01869323929648    2.63542234665351    1.39316454952740
C         9.18580536185415    2.55609004139803    2.02599310921179
C         9.28681536747933    1.87623390702546    3.25749250100365
C         8.11363614626088    1.33288237729933    3.72887903635475
C         5.65219693351100    2.20918115368796    1.20954195629437
N        10.25101210159035    3.10258171109868    1.39292929633581
H        11.68844415164880   -1.08775707192272    3.71505617003029
H         9.89722844452213   -3.01858958440614    4.67018782970123
H         8.04960213973300   -1.99242738144204    4.09748248600477
H         6.41819390804801   -1.80395964901787    2.28744191438840
H         7.10362132739866   -0.91194218954478    0.08516835493655
H         9.45123991328347   -0.25909620965890   -0.29715470473716
H        11.10142107226318   -0.46746646774395    1.50722637285041
H         9.10617824521334    3.37038672791512    6.00680243198693
H        10.86366665630815    3.43934286107096    6.31106025149073
H         9.71156045657450    3.18509157893922    7.63605356403377
H         9.85371525729752    1.42548218384015    9.26561615328316
H         9.23284373316204   -0.23777905031691    9.24831502217915
H         7.10162599652284    0.75673719782073    8.15422367609852
H         7.40309665573024    1.06423858030587    9.88063968864735
H         7.32970558393145    2.86977302852560    7.80676587322243
H        11.32032478265581    1.19991100840169    3.38645576383558
H        10.98460404593399    2.68483794637871    4.30550925080847
H         8.07600055073091    0.79407584194520    4.66433916343835
H         5.26297046982252    3.21558507174886    1.36136650318403
H         4.93189809224783    1.49648420383969    1.60636828609176
H         5.79930485698613    2.06477432495282    0.14287587683566
H        10.03495187849906    3.65815747430498    0.58146613901039
H        11.08473028702202    3.33041789972898    1.90382356037405

