61
CSD_code = HOXZAW | q = 0 | S = 0 | Stoichiometry = C30H28N2Zn | MND = 4
H         8.73002555872494   -1.75347152491180   19.38572449216445
H        10.32196197609289    2.34712843090195   18.97180010655585
C         8.13726998758384   -1.06127098356487   18.79402563164843
C         7.28658174875951   -0.11173552501185   19.49529703040061
H         7.58294827148877    0.39475152644119   20.40058503365787
C         6.09207717998448    0.02511118484499   18.86040994202189
H         5.29084021740706    0.68864918875353   19.13623343504295
C         6.04987005626565   -0.89092509163106   17.76749006487419
C         5.05557507385161   -1.18016250963837   16.83698776183271
H         4.11821053147698   -0.64018922723473   16.85308353757658
C         5.27939807963402   -2.17634368801320   15.91089490753190
H         4.51219151961008   -2.42651584084152   15.19082016279728
C         6.48331200929347   -2.88022452735563   15.89463796603857
H         6.62608132323940   -3.66527748702508   15.16399968504962
C         7.48696322555378   -2.59633227214836   16.79944857017907
H         8.41727231546043   -3.15059930702599   16.77631913258242
C         7.28129008782472   -1.59650573154035   17.74216241800198
C        10.84064467210649    1.64800971862947   18.32158683145903
C        11.94563639535139    0.87770887378617   18.87974717695324
H        11.93349541385582    0.45790177276826   19.87342849072667
C        12.96740267283975    0.78657422016430   17.98961751520054
H        13.88513174942650    0.23888329251677   18.11890570073349
C        12.63668032582431    1.55896886838253   16.83670483529614
C        13.34655225385152    1.83910153373512   15.67133643115142
H        14.32335575311353    1.40289626230951   15.50877826237073
C        12.79127484039655    2.69304583365428   14.74165565893014
H        13.33532074969618    2.93707355221031   13.83830865627983
C        11.53954312935746    3.27198582241978   14.95767993454462
H        11.13750518374190    3.95035798054749   14.21742340535821
C        10.81785961785777    2.99942664133330   16.10223600998523
H         9.85161315105908    3.46059755478017   16.26240054106127
C        11.35547911534680    2.13359979514027   17.04818187714558
C         7.77406460242270    0.29681759936623   15.15121799428490
H         8.48273600915017   -0.44715609663030   14.81670113158356
C         6.59224305779154    0.49611818047017   14.45313437814693
C         5.71125157276021    1.45278249260611   14.94840831750808
H         4.77260544010321    1.63694454378622   14.44619916483435
C         6.05247141186910    2.15811185417743   16.08753093297748
H         5.39062135431954    2.90369280238100   16.49906607144316
C         7.25863870721682    1.88146184916650   16.70685193520441
H         7.56501772552674    2.41336341704252   17.59632678326341
C         6.28875004788040   -0.27811235371324   13.21192359357277
H         6.58082362747016    0.29743152663030   12.33261524198899
H         5.22354992234856   -0.48361467119679   13.14240861223460
H         6.83265716646537   -1.21876072847632   13.20512867462069
C        11.20074884480369   -0.62581482712654   15.30521850607773
H        10.73123817947076    0.27283265550208   14.93128405948513
C        12.23146780773763   -1.22541426780279   14.58678685327183
C        12.81459631333517   -2.36029909261951   15.13451491338194
H        13.62685839632512   -2.85658793848760   14.62300502446412
C        12.34525546126237   -2.84494455913154   16.34499392481451
H        12.78124342527274   -3.72128280983541   16.79830963514704
C        11.30469693374983   -2.18218300456276   16.96805010241244
H        10.90353904904757   -2.52975452263795   17.90941962347111
C        12.67111527862343   -0.65407684339466   13.27918996291512
H        13.62188203324566   -1.07927866075045   12.96847055491556
H        12.76880085564872    0.42640972729916   13.36145747721812
H        11.92920043155651   -0.86706155191788   12.50954554139158
N         8.11029499492847    0.97083858124618   16.24576107907209
N        10.73746827812663   -1.09476581376011   16.45547045798457
Zn        9.47919888558623    0.16988417476640   17.73899824718334

