45
CSD_code = HOYBIG | q = 1 | S = 0 | Stoichiometry = C22H18N3ORu(1+) | MND = 9
Ru        4.06189115262114    1.70433979711384   10.88508835786442
O         2.40146306217745    1.50015432663657    9.77827818205694
N         2.86796495445273    0.59986290761220   12.09598595764880
N         2.92284549887734    3.23902111886026   11.54264629004004
N         0.07128255133314    1.28191181902609    8.65591991949265
C         5.24966053190803    0.98014690227533    9.07664325746865
H         4.89845359055368    0.55251690137137    8.14535956703370
C         5.57963716546136    0.14987466220818   10.15211626783073
H         5.52086938449564   -0.92788137370099   10.04823944714231
C         6.10471025315639    0.71485804505138   11.34816655510493
H         6.46625893313110    0.05829687394565   12.13285599521634
C         6.33070816400987    2.09678612016569   11.44272908096917
H         6.84557753555263    2.51048687555493   12.30173346029234
C         5.93054938816132    2.93205466682986   10.37492568445540
H         6.14584934379974    3.99551719907811   10.41639823103244
C         5.39613004642747    2.38235741576281    9.19244462484198
H         5.18675132233357    3.01966301004431    8.34181304061453
C         1.35655595794858    1.70698874656129   10.64312022352705
C         1.56377825122265    0.69446790293739   11.78395898087968
C         0.61497095992350   -0.11557523611142   12.38504478021270
H        -0.41798601714958   -0.05713734210293   12.08588450368782
C         1.01812057587239   -1.02484778316284   13.35092559950231
H         0.29692203027911   -1.67168505350016   13.82459790286578
C         2.36103650050350   -1.08988621803591   13.69134865015360
H         2.71432228669601   -1.77435724818693   14.44490575351250
C         3.25348629716443   -0.26320977398180   13.03532372614542
H         4.30851733099499   -0.28641887584448   13.27670823478478
C         1.61390520639269    3.08543022379942   11.27597704411441
C         0.70882717139474    4.11261424977584   11.48462122613949
H        -0.32619029833163    3.98881604364825   11.21398559200593
C         1.15943573364365    5.31206647817197   12.01445370370547
H         0.47298232849473    6.12780542094848   12.17635754164341
C         2.50416541837125    5.44407999585995   12.32832858357828
H         2.89163445562740    6.35391105670667   12.75639669360156
C         3.35342499263226    4.38507872146076   12.06953091457316
H         4.40922621191992    4.45125266039638   12.30201090082338
C         0.01149626402096    1.57845847695663    9.94114525783020
C        -1.19618154022589    1.75527567297706   10.61422418969556
H        -1.22405981715281    1.99565947344961   11.66673584031266
C        -2.37398797751793    1.61254565238838    9.89618399360878
H        -3.32744401507331    1.74247637307622   10.38663493143760
C        -2.30735726892884    1.30138140685137    8.54787254388583
H        -3.20178645819340    1.18167767457989    7.95842568022321
C        -1.05219440164949    1.14703885839673    7.97736660023140
H        -0.93442305733273    0.90372517414783    6.93058648821342

