76
CSD_code = HOYFIK | q = 0 | S = 0 | Stoichiometry = C30H41NiPS3 | MND = 4
Ni       -2.96280316091322   -4.28311023329021    0.06150416277708
S        -2.48387524708946   -6.43427570623754    0.20186034829226
S        -2.26418603652778   -4.28327068758012   -1.96962192033068
P        -4.47804904364368   -4.28266096060722    1.65135855989083
C        -1.45589693239990   -6.71782406938454   -1.16918260705412
C        -0.80585148065696   -7.94655772637774   -1.29738558952444
C         0.03244466228794   -8.17947687337589   -2.36533603096256
C         0.21178669011934   -7.20875538494774   -3.34221347773518
C        -0.45268182613514   -5.99978118025026   -3.24724534490664
C        -1.25513326346512   -5.74311421217932   -2.14988352172120
C        -6.06873468591538   -4.28247903333374    0.67720931843339
C        -6.08877517327671   -3.03361761445689   -0.20633385602550
C        -7.28048913305859   -3.03604378495939   -1.15784130985508
C        -7.26231800256620   -4.28280486563761   -2.03378553466054
C        -4.58455417412913   -5.82048689811252    2.69196128591572
C        -3.33615076833988   -6.00887566376269    3.55303231441604
C        -3.30918868059521   -7.43693935872796    4.08918480633186
C        -4.56546760536703   -7.71354915898282    4.91170494397209
C        -5.82436821665668   -7.45674307561615    4.08717652551013
C        -5.83449517408001   -6.02827878558712    3.54131723251823
H        -0.96720982956594   -8.69604548193388   -0.53777192431376
H         0.54587896509878   -9.12594079818391   -2.44676610204872
H         0.85635781359347   -7.39792719684527   -4.18674243187705
H        -0.33908552283188   -5.26732043784501   -4.02930179215287
H        -6.93162353626289   -4.28213799700568    1.35098463699805
H        -6.11856579940220   -2.13201422686741    0.40663339074517
H        -5.15442590274430   -3.01666542269458   -0.78798644422617
H        -8.20711995384995   -3.01360272658869   -0.57835117105704
H        -7.25341107435992   -2.13879135540600   -1.77925455702976
H        -8.12176994639931   -4.28276279043562   -2.70684185184561
H        -6.35579564107510   -4.28313734817739   -2.64265088416603
H        -4.55497640189152   -6.61097192867719    1.92972821403534
H        -3.34818997435345   -5.31603666410933    4.39463513430281
H        -2.44468510200555   -5.80789213871444    2.95404551290371
H        -2.42159283276966   -7.58648699677051    4.70662285921250
H        -3.25656268950869   -8.13400944926713    3.25095600879600
H        -4.57177857850790   -7.06336879223720    5.78997950749010
H        -4.56024529462561   -8.74697049903786    5.26366568416055
H        -6.71101738382609   -7.62202103654515    4.70347197593811
H        -5.85996979093456   -8.16144647580575    3.25354790541531
H        -6.74080212437877   -5.86641308605687    2.95626243906760
H        -5.84074831185553   -5.33190711267938    4.37979239286795
S        -2.48076787938424   -2.13322287001195    0.20347243825312
C        -1.45500256137879   -1.84893923486900   -1.16899818001710
C        -0.80497577503794   -0.62020679364432   -1.29718816537553
C         0.03100539015886   -0.38629430890225   -2.36670981566926
C         0.20752699184950   -1.35576851835373   -3.34536954627331
C        -0.45697561721210   -2.56470985037096   -3.25027698475740
C        -1.25640392193099   -2.82272499913802   -2.15099982639476
H        -0.34617640481418   -3.29600081682449   -4.03386118295896
H         0.84988927594992   -1.16557141068220   -4.19135252246347
H         0.54457436278787    0.56009684811082   -2.44809066429082
H        -0.96466204229489    0.12843767272509   -0.53638587237495
C        -7.28106438709895   -5.52919306153310   -1.15733643871713
C        -6.08936549969177   -5.53166759651621   -0.20584374186069
H        -6.11955210356411   -6.43298989885348    0.40750326838861
H        -5.15501510246654   -5.54927358074491   -0.78749317553963
H        -8.20770206315482   -5.55100152251554   -0.57783210726021
H        -7.25432765961618   -6.42672823400316   -1.77835715555231
C        -4.58428005915194   -2.74475314821611    2.69208399471792
C        -3.33637487080840   -2.55723875582086    3.55407320318932
C        -3.30890418930916   -1.12935990272779    4.09071289449527
C        -4.56555485372233   -0.85210555966790    4.91241886537691
C        -5.82398527193095   -1.10810986407747    4.08689609054406
C        -5.83467117825431   -2.53645776377521    3.54069244799550
H        -4.55383945535228   -1.95419004704607    1.92997718414680
H        -6.74071948121848   -2.69754322055064    2.95502588950899
H        -5.84189119041854   -3.23306328615495    4.37896983787833
H        -6.71093844861761   -0.94263135272355    4.70268795534152
H        -5.85877742958919   -0.40310745826565    3.25347167539085
H        -4.57277646575131   -1.50234348310343    5.79064580677774
H        -4.55995683016394    0.18129770242283    5.26445644439886
H        -2.42164728177579   -0.98061589279447    4.70884326844865
H        -3.25520195077199   -0.43204873565365    3.25275605015944
H        -3.34951161960757   -3.25027105661567    4.39549833782837
H        -2.44454826177860   -2.75858476379734    2.95577091816901

