58
CSD_code = HOYFOQ | q = 0 | S = 0 | Stoichiometry = C30H23NiPS3 | MND = 4
Ni       12.79393122394048    1.85018700903130    1.56328663819632
S        11.72803007372692    2.44074947740577   -0.34201390611095
S        11.17885659284722    0.49860718391734    1.91268301605346
S        13.29852385831052    1.84531838640234    3.71240738609821
P        14.65348338287727    2.80902523135643    1.00836787215846
C        10.08652533331248    2.27012531777207    0.22752717851277
C         9.04297346477299    2.94232406217597   -0.40281583296059
C         7.76267351471619    2.86450075336580    0.10916256319340
C         7.50196412417504    2.11580712869242    1.24719026455737
C         8.52103855342807    1.40281912314199    1.85798303464862
C         9.79930127444968    1.47945221316379    1.34367693393222
C        11.99130624184206    0.96115641583558    4.45133492831160
C        11.92987537981882    0.82055363450733    5.83899992778732
C        10.91211352116798    0.09036130904738    6.41487360407090
C         9.95814447829246   -0.54327494810007    5.62783358715087
C        10.01476373083793   -0.42720873829001    4.25091306033474
C        11.00168129035183    0.35612136539484    3.67774999250416
C        15.57219132463696    2.26262829093724   -0.46349964656741
C        14.93475737255787    1.44896332622475   -1.39224438632968
C        15.60466038195153    1.03731167461472   -2.53028019612558
C        16.91531404142605    1.43184018214926   -2.74163218877588
C        17.55866021653726    2.23265497941867   -1.81074773035828
C        16.89435535499495    2.64651188170742   -0.67083306449086
C        14.23407430299261    4.55206314391281    0.69531929375120
C        14.94122815729990    5.39687726728450   -0.14903183876952
C        14.53023626385937    6.71049608105638   -0.29963273941017
C        13.42133577206885    7.18050486076868    0.38460644418128
C        12.70810308349860    6.33619988187407    1.22201380152600
C        13.11222619048202    5.02449706182029    1.37293455641356
C        15.97840318178815    2.91021698202189    2.25095486487395
C        16.29525659189918    4.07985849898211    2.92884618147123
C        17.29057138424926    4.06788756680091    3.89107460952409
C        17.96290499358226    2.89427306534610    4.18594061899771
C        17.63910054127725    1.72203662710737    3.51986641120120
C        16.64743331250387    1.72833866746712    2.55931569830863
H         9.26198518908686    3.53861626419595   -1.27504271788780
H         6.96187155401754    3.40423644084422   -0.37408723898403
H         6.50459501669579    2.07572713251612    1.65744201389592
H         8.31939104155677    0.81638354996058    2.74058914770746
H        12.69197233302259    1.29009257559522    6.44162447581073
H        10.86804297507459   -0.00540667932901    7.48965112867536
H         9.18289562408695   -1.13850884300428    6.08525153664139
H         9.30909830585630   -0.95335249550734    3.62485019404788
H        13.91159926758609    1.14457459108072   -1.21172149701237
H        15.10581607541669    0.40623734956500   -3.25059499323420
H        17.44057007242139    1.11032832857555   -3.62891068354290
H        18.58372933366609    2.53295085193344   -1.97301865415417
H        17.40132319107991    3.25600980566927    0.06465553945087
H        15.79863667672575    5.02826739433886   -0.69288911055583
H        15.07595281973277    7.36977400491741   -0.95884542122827
H        13.10611126856821    8.20583124748686    0.25832758694104
H        11.83734584107959    6.70089903624316    1.74646176354350
H        12.55710201226326    4.33107508062764    2.01121695966684
H        15.76405209712230    4.99398317140484    2.70554142370261
H        17.53794048453512    4.97881775923466    4.41641869733479
H        18.73530671902935    2.88973604395645    4.94086670270484
H        18.15643346044087    0.80411384368583    3.75722555717426
H        16.37393013443607    0.81842858185918    2.04045665154598

