63
CSD_code = HOYGOS | q = 0 | S = 0 | Stoichiometry = C30H20N6NiS6 | MND = 6
C         0.57366721753684    5.33913593084521    6.03807328699298
C        -0.79955696739035    5.85109816110053    8.02037021344043
H        -1.62924616103929    6.04220649424086    8.67276260282746
C         0.51247809431753    5.84880243264941    8.33505169012082
H         0.90282126872937    6.04241188126318    9.31780661486762
C         1.33582732108506    5.56787469286133    7.20835100712853
C         2.72350195918196    5.49274207259300    7.10358387406165
H         3.34508501015220    5.64647383629329    7.97313352670087
C         3.26431380223273    5.23122443359365    5.86297638999232
H         4.33159303433566    5.17807803502982    5.72137270369059
C         2.42306684374298    5.01244356683509    4.77530761415375
H         2.84113324395782    4.80338070190883    3.80090768555722
C         2.33782547563724    2.21277019323940    3.41308599657324
N         1.09782999087602    5.03493260370380    4.85331155735083
N         1.21602004883773    2.56340113832262    3.32705358619072
S        -1.12621518406070    5.51640052924597    6.35293249166860
S         3.79931024767275    1.61710197596381    3.52487393612528
Ni       -0.00801536637191    3.86469961733620    3.31020146583195
C        -1.52849958915004    3.26232301300620    0.58193241713364
C        -0.66699112052871    2.30321827485157    6.03293954412293
C         1.47715890106907    4.40942299371947    0.55345389007528
C        -2.13012228262965    4.66174906597471   -1.35462721456994
C         0.69173702232857    1.68796391879884    7.99456461629322
C         1.98648884632403    2.98348518418112   -1.39088369069741
H        -2.36763504455292    5.49854633292578   -1.98234248346462
H         1.51619498741017    1.45619334508910    8.64050104805495
H         2.19180394307578    2.13795892982963   -2.01817220376035
C        -2.06611739207239    3.36078404453413   -1.70724232942949
C        -0.62051977037887    1.70513380780535    8.30876409095902
C         1.92179176933939    4.28142829750531   -1.75377133113993
H        -2.24887118270599    2.98966669543954   -2.69951308475508
H        -1.01511086713210    1.48306828094668    9.28382978076273
H         2.07012375756038    4.64127245978291   -2.75587309313067
C        -1.73191977878507    2.52170305213506   -0.60721303181979
C        -1.43589367266555    2.04896901104265    7.19393038832760
C         1.64173766435515    5.13538891302965   -0.64988592091071
C        -1.58572045950613    1.13736460606619   -0.53953321412163
C        -2.82070644337955    2.16660431661407    7.09001191468256
C         1.51609838843129    6.52231888408695   -0.59170693445427
H        -1.72372081171167    0.53116147254863   -1.42259311056869
H        -3.44870788232347    1.98868190642851    7.95045389967348
H         1.62032517198614    7.11717230617534   -1.48697237690623
C        -1.27070479582020    0.57912445072152    0.68115819193207
C        -3.35084997752856    2.50802594279146    5.86387975287187
C         1.27056243111490    7.09801090694123    0.63652645667329
H        -1.16057613330157   -0.48793842260122    0.78931246100904
H        -4.41653857606485    2.60110151742329    5.72899193891217
H         1.18109535339928    8.16706528184181    0.74179968488796
C        -1.07418021323653    1.40201482177436    1.78801697882692
C        -2.50147005096055    2.75118125656967    4.78664873772673
C         1.11571957389033    6.28894833350023    1.75933387309194
H        -0.80986231075075    0.97840502017681    2.74647239258838
H        -2.90285844366238    3.03442644958618    3.82395990137945
H         0.91880064007843    6.73378887538492    2.72441434960226
C        -1.63977884962611    6.22372493276390    3.27653014445221
N        -1.17910918858427    2.72397103399778    1.74603085546635
N        -1.17968612760963    2.66902346538808    4.86269974778486
N         1.18620467585750    4.96365083851494    1.72748087287621
N        -1.30257621664940    5.09443527699814    3.28533198729783
S        -1.79459134044043    4.95996346328702    0.31868171465732
S         1.02938615923991    2.07970725088255    6.34125844118480
S         1.71422860416718    2.70666991303338    0.29721633088811
S        -2.21757924734332    7.69624198160277    3.24434737227619

