123
CSD_code = HOYKEL | q = 0 | S = 0 | Stoichiometry = C45H66BCuN10 | MND = 5
Cu       -5.70953091725756    7.10880498919504   -6.33674005562577
N        -5.55112517009418    7.78845984229122   -4.63048148145586
N        -4.53930450980007    7.46199471333511   -3.86536404875765
N        -4.03673733439604    7.79694787569660   -6.74830397822658
N        -3.01761265422265    7.67166572206367   -5.93643475577649
N        -7.36408668388608    6.25604002564625   -5.91406295052575
N        -8.35354371645576    6.42975211088933   -6.79730809294740
N        -5.78526744943567    6.17237483676961   -7.98808143425573
N        -6.87722924460127    6.35964781557200   -8.73547006140199
N        -6.76520914973574    8.91012050443790   -7.18526254952953
N        -7.78745571548221    8.55813012931450   -7.97517656745429
C        -6.40233435747072    8.60776841862992   -3.99174326190939
H        -7.29834264071801    8.96427780127425   -4.45915965931976
C        -5.88838012669139    8.82705852854543   -2.72954806678202
H        -6.30746669453526    9.43992012981202   -1.95619909698456
C        -4.69824925627648    8.07697166419186   -2.70053220213584
C        -3.69807628197801    7.92648656005559   -1.60239356519316
H        -2.96203940521553    7.18541990903139   -1.93202899049255
C        -4.35483552478768    7.43894484589000   -0.30749353570815
H        -5.12008546333749    8.15464717262243    0.00115288368656
H        -4.84629396687825    6.47920023743066   -0.48482824036193
C        -3.31805731319195    7.29265097079657    0.80170490961318
H        -3.80335293727214    6.95607067959946    1.72103884218349
H        -2.58527323921412    6.53498807086685    0.51345372509698
C        -2.60377909475923    8.61860102036243    1.04467089570359
H        -3.32791210805455    9.36340573709622    1.38384413063768
H        -1.85349023101018    8.50015878960166    1.82982419523012
C        -1.94190214612022    9.10496960869172   -0.24073285922938
H        -1.18264534469020    8.38164268714921   -0.54853670464018
H        -1.44289838934361   10.06112375539334   -0.06558929763470
C        -2.97738930577202    9.25558580101811   -1.35018673680028
H        -3.71038830510294   10.01468011274231   -1.06668866212092
H        -2.49611846225310    9.58467540106516   -2.27370042152941
C        -3.68680154395251    8.44773538117687   -7.87110560919043
H        -4.38848603047521    8.63679264128112   -8.65970682019122
C        -2.34786544709873    8.76531094012577   -7.75734862960277
H        -1.73772673062423    9.28933819938973   -8.46677616245254
C        -1.96887400482284    8.24847534574940   -6.50534510197283
C        -0.65070848014345    8.34109903129311   -5.80900410307753
H         0.15180361495971    8.21941299447229   -6.54776586819308
C        -0.51598727166219    9.72851247990940   -5.16590971837622
H        -1.35151062473332    9.87162007175413   -4.47664412023065
H        -0.57998989880920   10.49881860082473   -5.93837344954732
C         0.80099166815090    9.85541053909185   -4.40838908400414
H         1.63400765758772    9.75258740056694   -5.10868416194520
H         0.87008766376897   10.84506268760674   -3.95038686705186
C         0.90330343495933    8.77581075030315   -3.33635250509942
H         1.85440525594913    8.86480636396285   -2.80562042429301
H         0.09886851062494    8.91355653653768   -2.61123871015001
C         0.78264248428882    7.39268523695659   -3.96757860517664
H         0.83695855305813    6.62402758208810   -3.19310773431738
H         1.62098004772397    7.23480982722032   -4.65186911239921
C        -0.52998948472999    7.26233181605232   -4.73242987483565
H        -0.59444020324465    6.27565987860074   -5.19565141139277
H        -1.38025139109536    7.36180810103549   -4.05714784466887
C        -9.45277096165229    5.82593029776950   -6.34098110187047
H       -10.36686452259668    5.84452657475420   -6.89905124181078
C        -9.16067774293023    5.23771212121551   -5.12686750746207
H        -9.82553854823347    4.67568362006934   -4.50563394068322
C        -7.81466106216001    5.52922011061008   -4.88899762891960
C        -6.94158695973854    5.10138604387299   -3.75595069465181
H        -6.56161996568114    5.99612843874891   -3.25454095195912
C        -5.73350904143017    4.31114765312097   -4.27926976168909
H        -5.19093883235357    4.91710153738940   -5.00928050014852
H        -6.08592663275620    3.40136100856418   -4.77378767054639
C        -4.80338240721132    3.95448685667689   -3.12618622408158
H        -3.95446096191139    3.38082901228558   -3.50296237591713
H        -4.41815599061992    4.87935856739872   -2.69407147477524
C        -5.54519399345450    3.14793616536015   -2.06481487737189
H        -5.86817259800552    2.19541660212634   -2.49282066197214
H        -4.87759504369550    2.92843798173646   -1.22917376413122
C        -6.76594254021105    3.91329825238366   -1.56383466925911
H        -6.44063332677315    4.83420225299237   -1.07464513699902
H        -7.30449393238204    3.31494060135778   -0.82564158230191
C        -7.69591353899017    4.26605289708364   -2.72120706639282
H        -8.06314834799360    3.34822674910960   -3.18647256177154
H        -8.55421642875521    4.82631723844249   -2.34467000621180
C        -6.72440257226572    5.71261258966761   -9.89412674730074
H        -7.48947587790864    5.73179684756372  -10.64368389250621
C        -5.49467784804620    5.08598436932591   -9.88920974782835
H        -5.06947122976215    4.48375263422872  -10.66476544805999
C        -4.92594039073141    5.40035872934730   -8.65120696138089
C        -3.63288925411581    4.94392000295305   -8.06873067144179
H        -3.48659383796591    5.45657440967268   -7.11317360007274
C        -2.45385757717019    5.27529870757088   -8.98930779786442
H        -2.57341328845034    4.75234644588298   -9.94094179547640
H        -2.43755381498665    6.34824866155251   -9.18873674026178
C        -1.14794656135543    4.85033786324678   -8.32752975113669
H        -0.30740719985005    5.08357358705741   -8.98437276843874
H        -1.02040806450659    5.41791000032761   -7.40368733165930
C        -1.16607911141216    3.35705943756083   -8.01493099893494
H        -0.23796915030885    3.07026192061961   -7.51649695462396
H        -1.23169434877030    2.79230171275028   -8.94841552524064
C        -2.35870508230868    3.00956775470729   -7.12876574220510
H        -2.26226094539512    3.52732299256005   -6.17205600047166
H        -2.37623125339129    1.93533755970838   -6.93205461341639
C        -3.66330888357416    3.43484387230118   -7.79474632262665
H        -4.50960556290425    3.19595388258894   -7.14697082383531
H        -3.79297617831647    2.89396874267249   -8.73511575139245
C        -8.36265102851822    9.66027783991806   -8.48726716681875
H        -9.20353459081829    9.58986894834437   -9.14769282228418
C        -7.68508266429148   10.75920154212823   -8.01010754068816
H        -7.88517079963232   11.78935369503770   -8.22205564935657
C        -6.67643555625542   10.23313704970033   -7.18681125873559
C        -5.62388547955007   10.94445302757494   -6.40549527102498
H        -5.02997033028980   10.18142290199364   -5.89204558759221
C        -4.69638761765269   11.75067034996033   -7.32071749002761
H        -5.27054947007806   12.53031318238324   -7.82744154772270
H        -4.26857534675279   11.09512163166334   -8.08106057898480
C        -3.57906104121426   12.38175005955176   -6.49712681143675
H        -2.99049160458445   11.58692217831618   -6.03374404904953
H        -2.91576099464673   12.95578059644272   -7.14850040487064
C        -4.15528606329833   13.28767900566635   -5.41322821663248
H        -4.68825784819082   14.11900021213406   -5.88217728759262
H        -3.34681928083229   13.70733946106664   -4.81048416270978
C        -5.11879285201631   12.50972290947256   -4.52208936912183
H        -5.54889397839582   13.17453644963728   -3.76924487104988
H        -4.57583278070402   11.71766428324006   -4.00109439387018
C        -6.23038244166124   11.88091864772897   -5.35551230122841
H        -6.90733473942520   11.32300023891367   -4.70628251268807
H        -6.80795882435624   12.66333801987088   -5.85396791163814
B        -8.11787288308653    7.08763757425625   -8.17422962465594
H        -9.05314501033400    6.93769801498031   -8.88124217026512

