70
CSD_code = HOYSAP | q = 0 | S = 0 | Stoichiometry = C20H33B10O4RhS2 | MND = 7
Rh       11.15130784493414    3.87669540470317    0.86917398154994
S         9.66650015012425    5.41177853326574    1.56986181075364
S         9.51692009920156    2.63482065374301   -0.00233065875951
O         8.46648447537665   -0.71963410111832    3.14046201670052
O         6.76819625440424    0.65447522016983    3.68497855825395
O         7.07678329089128    6.52674252937278   -4.51236901482411
O         6.35659596581104    4.77795024322348   -3.30985480036160
C         8.02597176776046    4.73659626963511    1.24945821109269
C         7.95018089184272    3.38762470268798    0.47709487884176
B         7.56215934547619    3.31266522993758    2.19504136128625
B         6.79368585891292    4.88011400819578    2.41758391930908
H         7.04054248483096    5.49135836855897    3.38847748586195
B         6.72363633961517    5.76228748807943    0.86340571267745
H         6.92027451987171    6.91921031021303    0.87927357201007
B         7.42725001231976    4.80289832374774   -0.43983209307706
B         5.68562926239690    4.82585203300169   -0.25348515135266
H         5.01403819934350    5.34494451451003   -1.06119363348084
B         6.56472458653465    3.28642874097802   -0.53601573352625
H         6.65875751617554    2.65685180291849   -1.51962473022657
B         5.19047187751877    3.33894282876336    0.59235529498818
H         4.17241130177361    2.80794804169195    0.34171585726363
B         5.81518285894754    3.38462148208242    2.25875932675463
H         5.24967760477930    2.91212552349158    3.16999288633704
B         5.28976348195817    4.90004172676612    1.47961752462958
H         4.34004494521815    5.47893114432362    1.85715441810859
B         6.64748136177434    2.41064373230701    1.00383698617577
H         6.79992270932400    1.24857115917171    0.94194512605683
C         8.71484930261003    2.77697217443625    3.12057887210913
H         9.49715732030341    3.49903932970484    3.36580636668599
C         8.92050289158545    1.55726425100146    3.62192688163400
H         9.81876602408989    1.32698796645532    4.18148369123632
C         8.05132404625518    0.37607969546794    3.43554366784570
C         5.81573221415007   -0.38326140276954    3.50581936494045
H         5.14383765851406   -0.36313433975954    4.36257381237945
H         6.32372841148507   -1.34808101735806    3.43825004297177
H         5.25654411582138   -0.18978491539311    2.58879703620262
C         8.49209362923836    5.36036451423763   -1.44407342109432
H         9.49564644379688    5.47821032870284   -1.01973303265739
C         8.40956045088234    5.76276308766835   -2.71618440918134
H         9.26733498228172    6.20647023349368   -3.20712290251895
C         7.22873397601918    5.75248511116872   -3.59492847654967
C         5.19009347046039    4.72581773573663   -4.11419092712415
H         4.58346228155005    3.92043205713069   -3.70936520462631
H         5.45382089005392    4.52764551146467   -5.15572680153641
H         4.65286133950275    5.67514283695626   -4.06533947963141
C        12.82274437627266    3.05432734494227    1.98112579422852
C        13.00924883680453    4.48177506590630    1.91063638535026
C        13.10659117956957    4.83311600937558    0.54281811310285
C        13.03240921530131    3.61176263386565   -0.24497198379421
C        12.89155545577022    2.52082689518694    0.64647895948300
C        12.80907072278607    2.23150550051781    3.22678018414003
H        13.83242700828047    1.94163088183379    3.47383960921538
H        12.22551469588142    1.32366971535597    3.08817545409295
H        12.40215631522441    2.78831142621782    4.06807727885690
C        13.20516564495191    5.40177207534255    3.07378301107006
H        14.27203468090623    5.50810619558771    3.27821876461993
H        12.72364107982727    5.01476842382417    3.96837855186512
H        12.79721446010822    6.38852053438366    2.86570824768885
C        13.43377485855037    6.18598144503968   -0.00078476093153
H        14.51723072893261    6.28701914678835   -0.08941504317711
H        13.07054532435616    6.97096954486037    0.65846140059689
H        12.99970033114599    6.33260121134112   -0.98751851704268
C        13.25613942676314    3.53666036194671   -1.71999184454727
H        14.32894148774668    3.53104059137917   -1.92249953672273
H        12.82117354732521    4.39388860672065   -2.23000222167441
H        12.82303697441119    2.63092069376089   -2.13746737562497
C        12.92798879449125    1.06549218422544    0.30578551474751
H        13.92750635199482    0.67093457115372    0.49672938478508
H        12.68714654080384    0.90197892318742   -0.74128721661835
H        12.21899750577331    0.50262094407803    0.90964365214288

