69
CSD_code = HOYTAS | q = 0 | S = 0 | Stoichiometry = C14H35B19Ru | MND = 11
Ru        7.72457074299607    2.67778744206594   11.85152799169746
C         6.16867719196949    1.80761009695022   10.27580516292423
C         6.21373410072749    3.37712004710158   10.28992028626125
H         5.41204105036431    3.88785323509462   10.82810907535745
B         7.75907582913221    1.23786078246189   10.12758745622475
H         8.04631693857845    0.18065581821171   10.58471796818284
B         6.66027917770798    1.22687816911268    8.71297841604047
H         6.22759876814685    0.20060654523689    8.34560219970327
B         5.64055513994832    2.63730086164850    8.82617357890507
H         4.49122760910305    2.66879722907028    8.61279481722459
B         7.75738735811105    4.04505500793148   10.12151326124624
H         7.98296967036084    5.11054298369706   10.58960647230824
B         8.85237775946610    2.64600566632136    9.93354730496638
H        10.00118495018369    2.64654184740064   10.21163207255912
B         8.31869615955271    1.75854198521280    8.50023527255452
H         9.10021680853055    1.12086182377149    7.89462232069707
B         7.00113464707990    2.65851986259760    7.71480695009119
H         6.82522811891223    2.66377254964052    6.55326225003626
B         6.63457769216158    4.05639902914639    8.75529388963040
H         6.14493870529754    5.08530505636471    8.46520748408591
B         8.31083035182415    3.55360417022291    8.50256260265988
H         9.08358573174150    4.20292308912202    7.89868557765433
C         7.28506858487480    3.68369255094776   14.03549620317002
C         7.25045768806354    2.29211562230547   14.24575009798311
H         6.43896272012125    1.86263814106372   14.82294650647051
C         8.28568621138476    1.45878339827516   13.78047793891240
H         8.27685513990306    0.40239227858370   14.03381375820170
C         9.42632777921535    2.00182700683315   13.14596807268752
C         9.47219143499951    3.40413929051019   12.95274371456787
H        10.37224832660308    3.85987603568606   12.55619669161735
C         8.40318065612506    4.22588272390599   13.36594298393350
H         8.50392377390021    5.29984763529489   13.26963841457373
C        10.61505991257596    1.13674422915263   12.84618099833089
H        11.21770652521516    1.56760138492432   12.05113087244482
H        10.30470336122401    0.13940660754566   12.54207918902373
H        11.23764737726829    1.04338854999214   13.73788455689642
C         6.23911539200104    4.57078727068715   14.67263832815134
H         5.37395730969700    3.94995415852570   14.93653878970668
C         6.81522651543621    5.15587607116421   15.96763793066200
H         7.12624425432193    4.36040930735297   16.64188296882685
H         6.06585429854636    5.76239189243313   16.47070665299855
H         7.67915498243257    5.78147706771917   15.75247695491164
C         5.75759418343408    5.69075663555395   13.74925924665238
H         4.93895279973871    6.22990590012750   14.22019149343477
H         5.39944705403437    5.28789888822379   12.80442064093480
H         6.55376767296439    6.40078182901318   13.54033066868617
C         5.03440919578215    1.07376335603776   10.95434537704989
C         5.35591177103241    0.25914961883593   12.29451251304187
H         6.38892200192091    0.29565790838982   12.61566379912266
B         4.42751448555390    1.68351524491364   12.45290347840259
H         4.94822920666473    2.64785531946848   12.87407621925835
B         3.40865971198835    1.66694991658962   11.04270002571072
H         3.14310242891599    2.68596807967082   10.52129788976777
B         3.78623337609813    0.23599624533062   10.09227935210257
H         3.77058797271991    0.29244120167310    8.92153682821338
B         5.05170384984309   -0.66267990139314   10.89909380207275
H         5.96747270717177   -1.17606930353780   10.38221680282270
B         4.08760254396223    0.26252029578464   13.43183213600847
H         4.37442890285101    0.28789760404265   14.57415228499831
B         2.77178658795946    1.14714567953132   12.62892483904446
H         1.99256897958791    1.79673213961062   13.22524178077179
B         2.35744871969916    0.24171608839040   11.14989761077370
H         1.26922793161331    0.25705432173122   10.70417139618308
B         3.38989621234790   -1.20736136067117   11.06151212564901
H         3.03314496734164   -2.21146534308423   10.56553481777196
B         4.45924916385311   -1.17454116753473   12.47912263942555
H         4.99162328035150   -2.08345652210187   13.00242738391809
B         2.77809175213003   -0.63807322862937   12.64395116767978
H         1.99024579464160   -1.25173396727153   13.26517964542683

