86
CSD_code = HOZHAG | q = 0 | S = 0 | Stoichiometry = C27H46B2F4N6Zn | MND = 5
Zn        3.00821992042260   12.52263442419223   14.32055604939189
F         4.62913925696119   12.72104888325303   15.82673817251166
F         4.91968905291841   12.37737719834243   13.66139503675585
F         6.48862214951380   11.57895863293012   15.14319531425659
N         2.12387474561050   11.05533165910074   15.19587575350945
N         2.02297776019417   14.03448984270358   15.01123651167737
F         6.33258030302753   13.80761196659009   14.76572179459383
N         1.92503630199844   12.42218466250149   12.69530420134407
N         0.78508666533018   11.21938592370590   15.18850202482289
N         0.71465414353291   13.72709633346009   15.13153398239847
C         2.04317833400376   12.46941422465295   11.37116566706164
C         2.23540967762009   15.21626124561125   15.58144256632459
C         0.76810290334186   12.50494238484937   10.81007563599009
H         0.52075004072364   12.54106370188922    9.77039995168651
B         0.16757280113870   12.44000562519204   14.48427187802080
C         0.20697942145296   10.18247833107337   15.82212564919858
C         1.21587465987310    9.33251876957125   16.24453275084436
H         1.10482566135244    8.41393478678731   16.78123706029826
C         1.02682424171068   15.68642902982531   16.09377727610650
H         0.86385568651335   16.60768858645272   16.61243406303449
C        -1.27169674748213    9.99829613306591   15.95629697242905
H        -1.74514965710443   10.98247748819326   16.00034040662282
C        -0.11439828054027   12.47833949892214   11.87824998058627
C         3.38453595499501   12.53171321875297   10.71641093480375
H         4.06407183501068   11.88568962272683   11.28065392995959
C         2.40914528142345    9.92021170259395   15.82655027627767
C         0.08469959520920   14.71755307681404   15.78998143181845
C         3.81435888420900    9.45126611243912   16.00778254193812
H         4.45577220875419   10.04350054250309   15.34820882553050
C        -1.51964972966850   13.90937451213181   17.47729248976207
H        -1.10958894726638   12.90752016949956   17.37671151796820
H        -2.57009238027789   13.83467920138407   17.74845126296940
H        -0.98938228042502   14.41911629629459   18.27831568782548
C        -1.36322930943659   14.68511440130010   16.16453218958475
H        -1.91664230501500   14.15859392417231   15.38219208021982
C         3.58639652220660   15.84978417691366   15.60842306549162
H         4.26024411347157   15.23645312867736   15.00216929264015
C         4.25765366677739    9.69399241959088   17.45263855854347
H         4.19062830112117   10.75223792579913   17.68994171521858
H         5.29049588903925    9.38083608974230   17.57761713308819
H         3.63116858093378    9.13518190065704   18.14546755990072
C        -1.60818391251791   12.55270720092655   11.84374071145196
H        -2.00562194510547   11.99903192019586   12.69862497882198
B         5.69155195739465   12.62981516884997   14.88569151735404
C         3.91332235782761   13.96801407277995   10.80140114725442
H         3.24458143865229   14.65088483970641   10.28029246601184
H         4.89938867845165   14.02970698904430   10.34867710937584
H         3.99256476136912   14.27849804357281   11.84129395142991
C        -1.79723562773384    9.25963810088395   14.72038793054147
H        -1.55143973829287    9.81138455195971   13.81622030420052
H        -2.87693941862622    9.14530580976725   14.78029638208075
H        -1.34627438214084    8.27227913393979   14.65406602862482
C        -1.62365721481015    9.23412574949133   17.23175976627618
H        -1.25572249391010    8.21291716463275   17.18339224410101
H        -2.70320608031275    9.20093319614715   17.35782562546640
H        -1.18852985326852    9.71993410465400   18.10168485887686
N         0.61332639571727   12.43089682231734   13.00884505121751
C         4.12050403236859   15.87932836383589   17.04188303184030
H         3.46806893318479   16.46832206386096   17.68356779762219
H         5.11576703172523   16.31505726352761   17.05513176454372
H         4.18465888611576   14.86868702119461   17.43555033374480
C         3.53049685685831   17.25829777558956   15.01516864527665
H         3.13069552136890   17.23264244119870   14.00376927953704
H         4.53007597007006   17.68347938414707   14.98058313827291
H         2.89973759898337   17.90529190740172   15.62085646288868
C         3.32897158685751   12.05765318779988    9.26658943513580
H         2.90203825259031   11.05941022037720    9.20393957450937
H         4.33155437883310   12.03096325263572    8.84722695754243
H         2.72608638168958   12.73362191865001    8.66447047576504
C        -1.93750877983044   16.09443419238711   16.29874855279663
H        -1.48177221586536   16.61806983973218   17.13464714013872
H        -3.00938412401130   16.04227924911991   16.47421605424783
H        -1.76306653708372   16.66780363358819   15.39150051715612
C         3.94864150165886    7.97508321874877   15.63455113783990
H         3.36966268068995    7.35222779237442   16.31284890714564
H         4.99106902243511    7.67388211069297   15.69512647877051
H         3.59765333204530    7.80288636551639   14.61948421637853
C        -2.03989754610315   14.01809337820186   11.96893300650099
H        -1.64606544456828   14.45267425103841   12.88443592372960
H        -3.12471237530299   14.09152451178316   11.98269569683070
H        -1.66360387947176   14.59228944822006   11.12546010105769
C        -2.16791234828821   11.93312225288769   10.56420328794252
H        -1.87807956528474   12.51621295294374    9.69435081780529
H        -3.25404330779758   11.90766615668727   10.60974650693796
H        -1.80299768834164   10.91656842731585   10.43935392827671
H        -1.00615800138023   12.40816679479477   14.55931156367069

