35
CSD_code = HOZJAI | q = -1 | S = 0 | Stoichiometry = C12H17N2NiOS2(1-) | MND = 4
Ni        0.79223503341035    0.39386878562158   10.18532006434211
S         0.79087162613121   -0.17172808932451    8.10909144957983
S         2.62732427962692   -0.56986258201118   10.80598039130177
O        -2.48288053563826    2.63516983610899   10.71633956724041
N        -0.80627499020160    1.36368103365587    9.78978862225423
N         0.39064348780717    1.00436485244346   12.03250588609044
C        -0.92641700882754    0.28078653747083    7.65827546517368
H        -0.94444109890484    0.44828217662489    6.57917874949491
H        -1.56461807990023   -0.57081151649212    7.90371385622182
C        -1.32892733452026    1.51098637571819    8.44795423019669
H        -0.89527376307438    2.40938732178928    7.98117803505775
H        -2.42167937157228    1.63769546470433    8.48381095376123
C        -1.44632669926834    1.95880364974805   10.78465713307154
C        -0.74605359954471    1.71812144167145   12.08864455705136
C        -1.24867299245681    2.22279190547895   13.28215966374530
H        -2.16667021182452    2.78979512848827   13.24386956781110
C        -0.56457732234758    1.98323117550387   14.45698937545271
H        -0.93153670109949    2.35975483516760   15.40270826338578
C         0.61118311644001    1.24531073265007   14.39278908084912
H         1.18374203120136    1.03233675758712   15.28348769024183
C         1.04829190550448    0.78067635678126   13.16475987793423
H         1.96180844973088    0.20515014652095   13.07489776647830
C         3.77701458897254   -1.41240044491913    9.63785415506899
C         4.21845708814215   -0.43480523201568    8.55731552087024
H         4.70205704521402    0.42897685832844    9.01029739709770
H         3.34940792367928   -0.09324761087477    7.99929370482277
H         4.91751196565739   -0.91290202653252    7.86922418183380
C         3.09246077928067   -2.63030388903551    9.03202886261830
H         2.77701064281744   -3.31153283597759    9.82026921281291
H         3.77124423131944   -3.15617692818007    8.35882587878721
H         2.21502935443573   -2.31167391419807    8.47402549327577
C         4.97626488253787   -1.84423086971891   10.48183180695409
H         4.65487344816387   -2.51819690877110   11.27254141261587
H         5.44130886898261   -0.97624651645415   10.94353026270812
H         5.71350896013223   -2.35275200755784    9.85976186379971

