60
CSD_code = HOZNOZ | q = 1 | S = 0 | Stoichiometry = C29H26AuClN2P(1+) | MND = 4
Au        9.75454184764189    2.41223867560958   11.18964883096874
Cl        8.38743234067086    4.26601572913097   11.04270477523753
P         8.48952247540874    1.47826991137038    9.54216564279012
N        12.70614055506152    3.15440399648723   13.88615289445990
N        10.93569970400355    3.21889188964151   12.60970122347708
C        11.06214569690286    0.89099062278191   11.43720841705608
C        11.03822297993947   -0.32940374345192   10.79976935602101
C        12.00976076369693   -1.28788104789314   11.06087302343989
C        13.00948600187210   -1.02294212244916   11.97725618308998
C        13.04425427323413    0.19177031598345   12.63879428901879
C        12.07772495116571    1.16041506578472   12.37489725485244
C        11.97609107451749    2.46729598824458   12.98860832039551
C        12.09214887443396    4.36171854268533   14.07603011736602
C        10.99221317928924    4.39700391374624   13.27500126153983
C        13.89329073860493    2.74650687083208   14.60320923812720
C        13.54148763927624    1.87139882656288   15.80303209258265
C         9.56753427547851    0.94606319424563    8.19114353027766
C        10.64763192874838    1.77259817952377    7.88613199660894
C        11.48371712958063    1.45014265398800    6.83418046508888
C        11.24865756807636    0.30244268346609    6.09200653697863
C        10.18089336659906   -0.52419563501913    6.40277843966784
C         9.33537826198885   -0.20869236805765    7.45217805892753
C         7.50219202734311    0.08402156014583   10.12229742098829
C         7.69839870736429   -0.45629357508746   11.38894695519062
C         6.91673127000614   -1.51806913815502   11.80903275118031
C         5.94288252616055   -2.03840572001452   10.97176623141239
C         5.73742840239353   -1.49128660419881    9.71385384295451
C         6.50816625917786   -0.42683853286493    9.28618901188670
C         7.28704261030800    2.57924097030035    8.77392735104915
C         6.07243294210652    2.78638483026190    9.42975845108708
C         5.15046679354842    3.66137746724366    8.89234561365310
C         5.43612807820258    4.33519711309432    7.71348214490624
C         6.64576147193115    4.13430654767483    7.06904554074235
C         7.58011721853755    3.26074808724456    7.59651182824795
H        10.25742687834156   -0.55791848175847   10.08735435529951
H        11.97391130508918   -2.23644169423557   10.54832405853557
H        13.76416894178363   -1.76479224971692   12.18682402695602
H        13.82363115854590    0.36940510445335   13.36002788687227
H        12.48231954811355    5.09432213866925   14.75161910689592
H        10.25494449773250    5.15906654096128   13.12653342574477
H        14.56429165752308    2.22625417338050   13.91624607839446
H        14.39672298973951    3.65384364243139   14.94416510324180
H        13.00713807509317    0.97646974221132   15.49311685782271
H        14.45084440829380    1.57460399465655   16.31735824242975
H        12.91483877109697    2.42137289990296   16.50072153770964
H        10.82058716990788    2.66336858583359    8.48005201981078
H        12.31768524777030    2.09139316794163    6.59304933319588
H        11.90207055343928    0.05090532458409    5.27112838958643
H        10.00405986861988   -1.41926990564699    5.82637008498062
H         8.50845319124373   -0.85890638771023    7.70039469341989
H         8.45492614515616   -0.03834539707204   12.04099987743216
H         7.06479342095880   -1.93578641680826   12.79300613770213
H         5.33421883353256   -2.86519663338195   11.30355839984209
H         4.96911426680434   -1.88923638684079    9.06877741388606
H         6.33393307595004    0.02327543561662    8.31749265234226
H         5.86679689659788    2.27151811946480   10.35894848129114
H         4.21168011685591    3.82761563694656    9.39827091643257
H         4.71505691725438    5.02380640301072    7.30069613498586
H         6.86792086484914    4.66382407665007    6.15498549007751
H         8.52694126644598    3.10901341756008    7.09695020380542

