61
CSD_code = HOZROE | q = 0 | S = 0 | Stoichiometry = C21H26BMoN7O4S | MND = 6
Mo        9.10140613581438    2.62026465815683    8.31845980954955
N         9.66485071232808    1.01040167980889    9.54501456072809
N         9.34225214781442   -0.28637885339507    9.40300086161054
B         8.42297627225591   -0.69199579592763    8.23394387167379
N         9.12063311950067   -0.23067233668284    6.95422702900366
N         9.44290135485611    1.07289292042541    6.79352356728174
C        10.09746744017250    1.18217973136832    5.63225560518909
C        10.18820743796542   -0.07816424627501    5.03844268145939
C         9.55809924614138   -0.95036294767809    5.90609269591794
C         9.36616288729683   -2.41701633563847    5.76969624851314
C        10.64352130528684    2.45530258248549    5.10033906561828
N         7.14477235713953    0.13277947530822    8.38384653835482
N         7.21127271522496    1.48336990104569    8.40159115819296
C         5.97029363077045    1.94147305746747    8.59788843914006
C         5.09434629279345    0.85898681556825    8.70129306138602
C         5.87503318066542   -0.27284573830040    8.56145370838637
C         5.45687542632265   -1.69778093376535    8.59542379581062
C         5.61686568133084    3.37922839412298    8.69830570453817
C         9.91952702986781   -1.00473853802825   10.37840421394001
C        10.63982782868874   -0.12706124076842   11.17619496330227
C        10.45353422422716    1.13649415623684   10.61623168355624
C        10.98232947353005    2.45383940016203   11.03862853881878
C         9.77230225177819   -2.47595356523996   10.51449578602582
S         7.94618837797081    3.75535483943694    6.43538927056768
C         8.14646880467626    5.46404137264181    6.71187950758012
C         7.32992000414426    6.33901992146472    5.98228636637876
C         7.44503637936377    7.69804498929369    6.14459522739172
C         8.38539589633343    8.20384810727132    7.04211439973946
N         8.50825476843864    9.61439792410096    7.21523990348534
O         7.77799000051529   10.33625357746737    6.55996280320176
O         9.33699149864405   10.02451790626049    8.00748119440491
C         9.20978532934473    7.34189435872888    7.76499928653394
C         9.09617513449061    5.98011161253041    7.59979687923502
O        10.63102278711328    3.15655574068767    8.01712873662269
O         8.49247259111307    3.58645440603796    9.50493268876285
H        10.65236683333854   -0.31648714820937    4.10361644589983
H         9.78245733065127   -2.74894732761598    4.82280643475598
H         9.86433243898960   -2.94878930290130    6.57839401716703
H         8.30833131746256   -2.67084556289271    5.79850188302029
H        11.44305851471000    2.24531244359403    4.39409477479117
H        11.02650459349230    3.06442195540234    5.92089615262974
H         9.86363573560900    3.02184940527886    4.58946408114835
H         4.03613135481795    0.90123124680743    8.85802124051167
H         4.37944236723305   -1.75479063135946    8.72179397000309
H         5.93576273425892   -2.22060642438759    9.42143179066664
H         5.73090534504336   -2.20194396948225    7.67080470711739
H         4.69095116757343    3.49177004547690    9.25703040004500
H         6.41800081968529    3.92457467707475    9.19975131776715
H         5.47974522232833    3.80809032353223    7.70468521720199
H        11.21927319705345   -0.37147695267153   12.04274879088843
H        11.56349824784105    2.36244502788117   11.95183867524801
H        11.60327298761551    2.87077956313178   10.24067864890851
H        10.15183554415329    3.14973055954073   11.18881778296326
H        10.33790689803089   -2.82044941098227   11.37530189465924
H        10.14084658718677   -2.98142190247418    9.62401924771642
H         8.72669097608190   -2.74681005394544   10.64710424472513
H         6.61107759713561    5.92355263848066    5.29371006946479
H         6.82169320912637    8.38590434923624    5.59391361945710
H         9.93359774931766    7.76157272056115    8.44690851209538
H         9.73957993714013    5.30288496706908    8.15245469306796
H         8.20934157018559   -1.84878823222079    8.23295153576106

