66
CSD_code = HOZREU | q = 0 | S = 0 | Stoichiometry = C23H30BMoN7O3S | MND = 6
Mo        1.87508814193198    3.19080114013456    6.61824191199053
O         1.30001569393458    1.72266348887597    6.12218694712186
O         3.31893239790467    2.90892365023516    7.36042108017072
N         0.68568995606712    3.27421699190254    8.36503887708380
N        -0.17427335983462    4.23526213513846    8.73889608520228
B        -0.31960105590801    5.48256120832728    7.84490070862475
N         1.08067722477015    6.07815128749991    7.71049882804288
N         2.08744328559662    5.32539233509635    7.21462318188173
C         3.19773511649878    6.06688445589074    7.25401088099486
C         2.89054805761811    7.32325087436821    7.78289518264440
C         1.53760225357652    7.29385166572021    8.06095310754090
C         0.68434569878494    8.36392536253224    8.63958788843332
C         4.52950309138355    5.59639802027514    6.80139208559987
N        -0.74448333172582    4.98088022751814    6.46487688836208
N         0.01679426945581    4.07602471888332    5.81033687858903
C        -0.61971564507607    3.76197248220978    4.67818819392051
C        -1.81041055077225    4.48880217841891    4.60626829825585
C        -1.85602145909183    5.25141522252906    5.75770356028859
C        -2.90472933302184    6.20864474632068    6.19573879640119
C        -0.12045522508716    2.77444409872266    3.68997186591908
C        -0.75674735888973    3.89495929224736    9.89905083779976
C        -0.24419817516940    2.66349740979921   10.28016342106231
C         0.66412062851052    2.30579738013688    9.28344069493654
C         1.50811201174842    1.09529216396897    9.15494412170875
C        -1.76438612560253    4.73741237049259   10.59261944825632
S         2.80123862323380    4.00633320852019    4.50362790528763
C         4.23713424391346    3.00105901451145    4.30579944356246
C         4.26428288588860    1.67723934845926    4.73439609935272
C         5.40407010794898    0.92227056973910    4.54731923203229
C         6.52781246955466    1.46214341861103    3.92180790258017
N         7.64959606907019    0.63644426378170    3.77051611331895
C         8.85793944035891    0.91414135881077    3.20510201497933
O         9.16823719632714    1.97753725279831    2.71855758499912
C         9.79514646658846   -0.27959261125062    3.24918224155949
C         6.48895115571884    2.77856758464906    3.47256916687733
C         5.35050416308350    3.53561474906652    3.66409342049883
H         3.56743386591512    8.13809648788996    7.93885544831565
H         1.28643215683751    9.25147898154920    8.81285723222958
H         0.25039960521762    8.04302113804168    9.58504454826336
H        -0.12899009676124    8.61618668635732    7.96183764863332
H         5.31170314283483    6.17344394903892    7.28870543832486
H         4.64944981674503    4.53756140716949    7.03539295290270
H         4.62477463374909    5.71764420049105    5.72173827458100
H        -2.53616874099878    4.45837100602508    3.81960094760139
H        -3.67852356884739    6.26882794689872    5.43553979455632
H        -3.35607893640079    5.88580053254975    7.13230806363224
H        -2.48145368657416    7.19969151630972    6.34760200745701
H        -0.94725462797471    2.40357498444110    3.08897433634079
H         0.36100631072483    1.94616828387800    4.21248473069845
H         0.61795218424763    3.23436982593590    3.03199580206999
H        -0.49538895776609    2.10412344768671   11.15804479978001
H         1.37144066035219    0.43521510968317   10.00711381797378
H         2.55779082345331    1.38993858463125    9.06860084839387
H         1.25199410508279    0.57307117106416    8.22893217894764
H        -2.08630830996836    4.24354027052521   11.50493578886552
H        -1.34351642191166    5.70857401654513   10.84591334628682
H        -2.63075541917142    4.90160759962623    9.95476632684983
H         3.39209435933062    1.24623607736063    5.21546578547873
H         5.42427384082912   -0.10373770288547    4.88933380129543
H        10.74396511502453   -0.00309724205321    2.79925372564464
H         9.96389655859724   -0.58913085458467    4.27854306274436
H         9.36729409021013   -1.11318780249775    2.69587279951485
H         7.34922202469594    3.20021828183119    2.98073153229020
H         5.31478161176952    4.55566557701489    3.31336215247412
H         7.52651312282312   -0.29514074670440    4.14337633219502
H        -1.08957829149815    6.24988420179161    8.29609558021112

