72
CSD_code = HOZSAR | q = 0 | S = 0 | Stoichiometry = C24H35BClMoN6O2PS | MND = 6
Mo       12.00199887145993    0.00867772925504   13.97722056116214
O        12.96979357312769   -0.66617172800760   16.00984555555465
P        14.03516079143554   -1.70972363440660   16.00596000070448
C        13.41080181652806   -3.38427728088218   16.39356215896187
C        15.26117493656556   -1.30078318467475   17.30253582612209
C        14.97756438972719   -1.91188283977572   14.46464937628709
O        13.47640172732713    0.09953247605107   13.27152255394170
N        11.87783861911717    2.00780193124941   14.57913283913044
N        10.79963552412685    2.76343603523660   14.31342063602260
C        11.07350896622618    4.06036536826035   14.56578686005320
C        12.38553685613508    4.12823019571709   14.99586949039110
C        12.85433055910202    2.81093158302383   14.98969544957244
C        14.19676289461735    2.28402363992375   15.34199897562866
C        10.08667817599827    5.15862377235929   14.39497290705643
B         9.54075639490525    2.08696667699306   13.76372688650517
N         9.90133765549371    1.46502612247558   12.41205568474917
N        10.97402186405515    0.65449095538240   12.30445902153739
C        11.20126835706577    0.44501764825615   11.00671538805878
C        10.22559370690696    1.11573260094409   10.26202507963274
C         9.41306552548369    1.74456289931218   11.18148610620890
C         8.19976829305541    2.56905469206573   10.94174138984534
C         9.71161118988607   -3.32743916337148   10.07172338248298
C        10.60536458872962   -3.27265167463390   11.12259542120654
C        10.36399034820706   -2.44981221420147   12.22289569215912
S        11.53140912114721   -2.37421862764435   13.52556963583833
C         9.17043394612511   -1.73174050172695   12.27381549724037
C         8.27672473176429   -1.77173436006574   11.22269897774003
C         8.55920987925901   -2.55972097505481   10.11929133769308
Cl        7.44976305010692   -2.59424156369356    8.78862943415874
C        12.35047081835446   -0.34991153058173   10.50349167307324
N         9.19663655916738    0.95752042881077   14.74544763798848
N        10.11132229912641    0.02059645273624   15.08249373595272
C         9.53882282697877   -0.77364660983980   15.99391847857405
C        10.20492334650234   -1.93831692234538   16.62882209930402
C         8.23438453426946   -0.34222889077274   16.23424888834686
C         8.05217576980237    0.76128950748730   15.42099477112198
C         6.83820068656590    1.60497359047236   15.27213241825239
H        14.23461143703094   -4.09033176504859   16.43098264003281
H        12.89364735737841   -3.37419399903569   17.35008314031473
H        12.71686600284264   -3.67486606792416   15.60583986818228
H        15.99923930886621   -2.08905399892143   17.40756078319034
H        14.73644947458310   -1.16061227928516   18.24500928139307
H        15.75529440739085   -0.37002974816960   17.03192111302653
H        15.77781779893092   -2.63272429361923   14.60823781637330
H        15.38192528029263   -0.94723203932678   14.16188806184783
H        14.28873701860180   -2.25449680655408   13.69015727504980
H        12.92882911836817    5.00727586099143   15.27813533750973
H        14.90422027379102    3.09823125056068   15.47511859896363
H        14.13915214635670    1.69754166330907   16.25929770518971
H        14.53288925574062    1.62553771043995   14.53866717434738
H        10.54423855978521    6.10434171685178   14.67195538352828
H         9.21138314929115    4.99304955659563   15.02103270168354
H         9.75464960565136    5.21719332765505   13.35964545128807
H        10.12823270611338    1.12635321122210    9.19572952520490
H         7.96707051956424    2.56570210674043    9.88055745368750
H         8.35775299458130    3.59745038833057   11.26397308440234
H         7.34845258387087    2.17090019704456   11.49080706646812
H         9.90987037351314   -3.95431890358182    9.21573190872467
H        11.51148228794948   -3.85942157797268   11.09966386830724
H         8.93601288189343   -1.13857687822166   13.14674499493890
H         7.36394450808080   -1.19679113745081   11.25846403623272
H        12.74329536611406    0.09995152555177    9.59436802032642
H        13.12793243578927   -0.37307660903530   11.26908040614489
H        12.04591009631245   -1.37197215808493   10.27910896809656
H         9.53085541967909   -2.39655924449938   17.34887820712321
H        11.11543393781342   -1.61991660338157   17.13432242740639
H        10.47243706229396   -2.67258076134486   15.86712358876111
H         7.52428714489481   -0.77870007158643   16.90687927181653
H         6.04465579821777    1.20915844362507   15.90041016429801
H         7.04369456827144    2.63210012112120   15.56832988774443
H         6.49956509449164    1.61326724213782   14.23789392950299
H         8.64932083120730    2.85044801656293   13.66054903070226

