208
CSD_code = HOZTAT | q = 0 | S = 0 | Stoichiometry = C72H99CoFN18O16P | MND = 6
Co        3.70890522231699    1.55302015270610    5.54103150384950
P         0.94328704050619   -1.65234411417468   13.62512308408570
N         5.47444649974661    1.05106149754397    5.65530743143508
N         2.65435208957816    2.47027667371274    9.56902820339658
N        -3.75835474346656   -0.45668403790451    2.99097981269538
N         4.26110881858210    3.33652848174493    5.16224746997928
N         3.64638320769457    2.07471909168017    7.61918845342522
N         1.85137289297010    1.90948908583976    5.54524070774861
N        -1.55489796458776   -1.33603431682656    3.17365487681284
N         3.37715558851502   -0.24016534917637    5.87867875896398
N        -1.42215243677252    1.08275997326711    0.57848972326468
N        -0.00528818366219   -0.32081249613196    1.59512493497625
N         7.84643777856437   -1.50554842304506    2.00917685402447
H         8.57910922504591   -1.68136974345563    1.34036534712558
H         6.89313385458290   -1.58997615850281    1.69691048217610
N        11.04122198808974    0.98991655920748    3.96982717207802
H        11.40049257512980    1.41764975611595    3.13173254038298
H        10.81267982792441    0.00771377251134    3.95078563347163
N        -4.39285429749857    1.15863086344181    1.47521578235341
H        -5.32409574347787    1.10580098267927    1.84730670234388
H        -4.16760940254834    1.78178014712295    0.72153688233400
N         5.75649172429833    7.21437288942762    1.59033722952587
H         5.63192591350853    8.16044642956388    1.26864521098227
H         6.66974393226018    6.80402465139903    1.52236373380017
N         2.82061663360855    7.00409714897852    9.61656697732487
H         3.03476839139781    7.39511194304470   10.51881152228078
H         1.90046112067132    6.63581568341282    9.45811230903208
N        -1.80533328786541    3.72557215251095    9.43290464686240
H        -2.01719817738214    4.51789442436461   10.01737423055373
H        -1.22870996794045    2.99710160845711    9.82717884499634
N         0.83839987944360   -3.76820570289239   10.53620212128335
H         1.74972700244275   -3.82951692833830   10.96527757605484
N         4.75391340512998   -5.83613846433094    7.43124964153008
H         4.74447617255002   -6.47690515757904    8.20810740017193
H         4.80813407922266   -6.21300495471567    6.50249538127853
O         3.16839706331637    0.16972769212469   10.64022098716793
H         3.02735553473155   -0.73006944009797   10.98822955295632
F         2.88405304609761   -2.33029740992922    1.25283045070419
O         4.61927146518298   -0.31645447711815    0.97349410358052
H         5.17835593743594    0.45471308596988    1.12303451886879
O         1.73500278973716   -0.00555442247912    3.08063977221797
O         0.51172942263467    1.91854013100858   10.36103365826982
O         1.32348355271888   -1.11444767677845   12.01574392140745
O         0.66946476177044   -3.20374248065805   13.23012804329014
O         2.16818788473275   -1.54613959905821   14.42449233747353
O        -0.33362617511536   -0.95863261830491   13.96002114249177
O        -1.62775661628617    0.90654967389171   12.42462071817715
H        -1.26285638277095    0.26644993829666   13.08195395969395
O         9.33622128332230   -1.35594179136863    3.67406733862818
O        10.80125032571333    2.99431334539559    4.95911851780318
O         3.64960823790506    7.14863261519503    2.35487017887943
O         4.87099033843225    7.48572395587992    8.84335784099619
O        -3.34901322890559    4.38289074112560    7.93679952107039
O        -0.47212237905891   -2.44290779770372    9.25432962040607
O         4.77703187564663   -4.07181004259317    8.81843615186676
C         5.77492755724733   -0.25996466363954    6.24397192561908
C         1.20706541287126   -0.88246701134572    2.10720310356945
H         0.93599849126021   -1.84395365668231    2.56943867243133
C         5.84650728989199   -0.14651855764715    7.77050609298532
H         6.50134039853670    0.66574434847505    8.06807845584419
H         6.20154758070799   -1.07274565559817    8.21051971100186
H         4.86124131726749    0.06777236084114    8.17316205106765
C         1.83470595978101    2.19949177690731   10.72556001647597
H         1.84586545131435    3.10082656223690   11.35374028130168
C         2.62898796201935    1.80295670529866    8.40186514316778
H         1.82920292185965    1.13425847839848    8.15534556930725
C         7.16815298921993   -0.62324486565000    5.60294499009369
C         2.40021060866667    0.97996715562913   11.48831273973232
H         2.99689995453871    1.29236820416955   12.35423231032349
C         8.04985681354370   -1.53882393803293    6.44523968905502
H         8.92401387177315   -1.82002475233903    5.86472679011053
H         7.52415436746995   -2.44885641765014    6.71922508207261
H         8.37990230977908   -1.06167651033458    7.36014138811348
C         2.30973259864851   -1.09868954805762    1.04921522395754
H         1.94240870639767   -1.09298412125386    0.02066371135959
C        -2.83028036861899   -1.24166275155713    3.50861250537160
H        -3.15719384408654   -1.88551893305420    4.31379956057756
C         3.31908934615675    0.00805834368426    1.38028544371057
H         2.97419494733468    0.94387440400733    0.91665379213538
C         7.77629911400647    0.78281847155997    5.35180465886943
H         8.36181853179990    0.76418249768383    4.43285234567523
C         1.11898028451061    0.24116672709724   11.89698704649477
H         0.74466318588141    0.67179351904453   12.83238256131029
C         6.53585489355586    1.62040083120022    5.17230791226160
C         3.13590075139556    0.08798299446550    2.91640649390393
H         3.61272183934066   -0.81920978208428    3.31352300998719
C         0.15915118443325    0.58131665503335   10.75105583003441
H         0.34582089550424   -0.09696184588347    9.90806615293998
C         5.67846596588716    3.51807735078900    8.06978269795681
H         6.19025170412785    3.29959235128573    7.14747120285639
C        -1.22876761306264   -0.50537209471226    2.18696926019200
C         6.55899063762306    2.90720248012911    4.55846742592115
C         3.68513658452787    1.34611315149304    3.54587288150418
H         3.09436935445028    2.17467756422460    3.14229785373741
H         4.70896360226746    1.46676263280240    3.17209641847068
C        -1.32153359936758    0.45074718024588   11.14781514202984
H        -1.92813988004421    1.03389138791693   10.44750066121269
H        -1.57896648892104   -0.60988998079220   11.02042981757671
C        -2.10726088483390    0.37189883621908    1.53471651891427
C         6.24532228437576    4.37046720099327    8.99841171800056
C        -3.43983286723997    0.36854249095777    1.98940845237861
C         5.47226743981552    3.73827994021647    4.67605566579644
C         5.59300528530992    4.65034138639198   10.21866495918677
C         5.38938232934661    5.20095838471472    4.22712515473190
C         4.38224461547674    4.05333796094605   10.51431972648844
H         3.89439918916408    4.24212026628277   11.45814345480881
C         6.62195607558128    6.06429554072994    4.48427405234416
H         6.33936670793869    7.11350425595771    4.43781321867073
H         7.03633561528190    5.86407581491659    5.46713251677665
H         7.40435795379265    5.90063635201118    3.75148011428527
C         4.15358886979268    5.67533190174030    5.02723384956058
H         3.56672443539830    6.41083387816569    4.47520276914060
C         3.81913924696312    3.20288528836314    9.57604514203021
C        -0.20102199468353    0.66518152561410    0.65651806167834
H         0.59492025721671    1.03219019790554    0.03901240618143
C         4.44096995083485    2.94379239564572    8.34037051442803
C         3.41759210759442    4.37658867737838    5.18099396279512
C         2.04541246747431    4.29286791723589    5.21431954672623
H         1.49429057940037    5.21276115128812    5.10909240536950
C         7.54917707645440    5.03851048264505    8.68977145782173
H         7.40648212262487    6.11830652337606    8.66195449430411
H         7.93852766835724    4.70893733331306    7.72929673788686
H         8.29201370726999    4.82025284643525    9.45481308809476
C         1.32782702570790    3.11338603921574    5.31491001879595
C         6.20072377068305    5.61514940661884   11.18500070019618
H         7.22085272503355    5.33194146237887   11.43607600706578
H         5.61810396958913    5.66241743605497   12.10096420492309
H         6.22709377105391    6.60595994340635   10.73195065510550
C        -0.17178384936056    3.05215246409475    5.13829324330076
C        -0.42163191640887    2.85402668619285    3.63299708099588
H        -1.48615455365918    2.73553297717885    3.44213296978428
H        -0.06399268236003    3.71288638024347    3.06918560594961
H         0.10074300979898    1.96512842477954    3.28453780531191
C        -0.91974821579090    4.28934532452649    5.61746058583348
H        -1.99180437081084    4.12139060347002    5.59562759995804
H        -0.64010106752315    4.56283692117797    6.63076160330048
H        -0.70704749592956    5.13122369264118    4.96274397588638
C        -0.48484733741183    1.73264528852099    5.86479024387005
H        -1.27474825933054    1.19119300054181    5.34257338644446
C         0.84787916243481    1.00971690969703    5.78872614412602
C         0.99157320883916   -0.32811701208987    6.05907725538401
C         2.29004326388141   -0.91802678683732    6.11140737965062
C         2.59859823565280   -2.39872344958000    6.35054275375773
C         2.31481392987095   -3.14917898941643    5.03630433776636
H         3.00585197058017   -2.86542808541464    4.24620734115006
H         2.37752958198072   -4.22424113628731    5.18870751384368
H         1.31018478168503   -2.92595566195585    4.69031080014829
C         4.11117979507365   -2.32214392500813    6.68369275322460
H         4.20103709219846   -2.07507785816330    7.74341900331684
C         4.54894876088038   -1.11488443676792    5.85291417294407
H         4.67303056602725   -1.44758848808031    4.81846015573714
C         6.95432162652113   -1.26338742573528    4.21242112670038
H         6.58766057948751   -2.28653771519901    4.32886596267816
H         6.20938943197374   -0.68518363989672    3.66120321011581
C         8.17667817314913   -1.37496797073745    3.31175497604323
C         8.68730350340418    1.38840864718356    6.43625993115053
H         8.59328003277226    2.47541919767178    6.40274237297273
H         8.37896027880254    1.07002034354933    7.42967973098326
C        10.16502348451494    1.04853141926368    6.22069671877538
H        10.73072768565161    1.39667085166899    7.08652756686475
H        10.31050665626521   -0.02246596893896    6.10715271151335
C        10.69962318618333    1.78470473140802    5.00349601165495
C         7.79251612586274    3.28405132427747    3.78343424309066
H         7.56075282733841    4.00583008259714    3.01016383685946
H         8.20289577828181    2.40692532909784    3.28741843431161
H         8.58111174709636    3.69437988303625    4.41227828705108
C         5.01352847765591    5.20342387510998    2.72073404223326
H         5.80944925369736    4.75122348042504    2.12940000660504
H         4.10384466152296    4.61277683002775    2.59529963587464
C         4.72431819873282    6.60777967802859    2.21626503113023
C         4.51525090893375    6.24269810672726    6.40741424350947
H         5.21193921706944    5.56891155879440    6.90437912826622
H         5.00252783063545    7.21056027442395    6.29407050641420
C         3.31475530405066    6.42795000815523    7.32905766823855
H         2.58369262686404    7.10362904659971    6.87827927902556
H         2.82531941487577    5.47187151603871    7.52386534888800
C         3.76773346724117    7.02541897418754    8.65252655685063
C        -0.85836660803635    1.88218367684561    7.35258247464335
H        -0.20971013618253    2.63736701144131    7.79843552287475
H        -0.63956539139641    0.93857805708169    7.85073607838132
C        -2.33471283999624    2.22955301864945    7.60083217677464
H        -2.89333121927120    2.26980671017284    6.66547898750155
H        -2.79627054160306    1.45306218739716    8.21485120738526
C        -2.55967083774673    3.54815162385313    8.32711193984077
C        -0.23370628157610   -1.16746903794199    6.29113641538012
H        -0.34548775666817   -1.44953851972360    7.33895682070742
H        -0.20083913928551   -2.07377040339556    5.69475967132982
H        -1.13260191996951   -0.64113187011464    5.99693246853712
C         1.85059252724016   -3.11283384751125    7.48326827885704
H         0.81506918284111   -3.27678178538329    7.19434625227469
H         2.30399832241958   -4.10001722051723    7.60198205735873
C         1.88491791107612   -2.39978495358401    8.84284796595252
H         1.86334736125885   -1.31908385512858    8.69712466581045
H         2.78496744193728   -2.66502515224274    9.39520894913926
C         0.63418155042976   -2.82780292268863    9.60112432276182
C        -0.24327705199340   -4.31573132011279   11.32375832940486
H         0.04573703488437   -5.32302237662694   11.63407156705244
H        -1.13045856131213   -4.35915360448486   10.68841680386720
C        -0.54574867031619   -3.46192542816633   12.56392950652905
H        -0.98227211474667   -2.51223771188477   12.23650597726446
C        -1.51859548627733   -4.16043483719663   13.50354688748433
H        -2.44820024649318   -4.38807042891019   12.98748642209413
H        -1.07509351251556   -5.07908705194841   13.88082598954667
H        -1.72150243158489   -3.50096222689299   14.34266963695694
C         4.88507904378636   -3.61797497924004    6.45813098588586
H         4.55470629803296   -4.15094008009373    5.56866225554360
H         5.94488672728594   -3.38955846239095    6.33598519229190
C         4.79220876706553   -4.51007291991375    7.69142720173778

