41
CSD_code = HOZZON | q = 0 | S = 0 | Stoichiometry = C16H16MoN2O6 | MND = 7
Mo        5.75367784438981    3.40791296015274    1.22665916925262
O         6.06312860126493    5.33370595697291    1.38836171086984
C         2.50069276166979    2.33634170456260    1.46336268412087
N         3.87114402619715    5.65823987107129    1.76547617027940
O         5.32526175543518    3.30309325484565   -0.35329282757073
N         3.85180328224289    4.29829844219638    1.66037014385052
C         1.25722384218225    1.77057092364972    1.13025815575059
H         0.41035932296332    2.41414904715211    0.95294454301555
O         7.59310123525677    3.50931305112107    1.36711963358817
C         1.10632840345479    0.41209351191965    0.98963938604429
H         0.14655353682147    0.00061281106702    0.71785011256430
O         7.16707899774603    2.24040451182132    1.63263919843038
C         2.19364085855470   -0.43530519207600    1.19560803891527
H         2.07119512618947   -1.50274763279601    1.08908707137835
O         4.79202813409663    1.93255675265768    1.96583653859298
C         3.42255928465381    0.08418895495943    1.52659051178850
H         4.28411312217110   -0.54883811095404    1.67922065340905
O         6.09111065874022    3.63083531651851    3.68017348183436
H         6.64461838740396    2.83120207530275    3.64993288335714
C         3.60864514091991    1.47123499824137    1.64635853381023
C         2.66109863853197    3.75546425418225    1.63253127199654
C         1.44672163400948    4.62439011647150    1.75825479868419
H         1.04924455991882    4.83642063656984    0.76642875040216
H         0.67964766766151    4.13210455314797    2.34906545464118
H         1.72736106816370    5.56779866951620    2.21756531174131
C         5.06337582943952    6.13173323000121    1.57379924344529
C         5.29257216570408    7.58243630758034    1.58986869529063
C         4.25380812757038    8.47610014761089    1.84595773598790
H         3.26559255191056    8.08754361472261    2.03091279430993
C         4.50356932560783    9.83492625504591    1.85697736779684
H         3.69999241906085   10.52859021856347    2.05539243291151
C         5.78257539976002   10.31169624094847    1.61077923391124
H         5.97206383601365   11.37490011577326    1.61837368590983
C         6.81701414504285    9.42622010318280    1.35160050485036
H         7.81124222017834    9.79938925731713    1.15610074093708
C         6.57674958979884    8.06550760140745    1.34112805717862
H         7.36639726862295    7.35709791796193    1.13621660659683
C         6.90244168841370    4.69072158088959    4.17888507924413
H         7.75058845094525    4.88118808019372    3.51316332835363
H         7.26110459685140    4.44122422888845    5.18216226208292
H         6.27457449443931    5.58098366163869    4.23304085044703

