39
CSD_code = HPZBNI | q = 0 | S = 0 | Stoichiometry = C12H16B2N8Ni | MND = 4
B        -0.56251450596934    2.65691934749941    1.34706903601134
C        -0.74997577618089    3.73808361840291   -1.03067644585309
C        -0.65353937644936    3.27160839908008   -2.33190782657415
C        -0.38291756825553    1.91662321956177   -2.19813838681165
C        -2.51037877459139   -0.39877674841350    1.48076216055204
C        -3.33446978607962    0.35175372196954    2.30816349498185
C        -2.71996764137848    1.59161037752601    2.38059169514365
H        -0.94400164387397    4.72546881344106   -0.66376514877601
H        -0.76344800821470    3.82950503348630   -3.23876590724898
H        -0.23834766664322    1.17576737953624   -2.96247986794597
H        -2.62164281704845   -1.41685768118262    1.15659140773629
H        -4.24191474038579    0.04050019533350    2.78288040387932
H        -3.00820518662187    2.47503676110647    2.91317753351013
H        -0.90816849435171    3.69387658970467    1.80012034745002
H         0.50747582673978    2.26227338138348    1.71726133748029
Ni       -0.00000000000000   -0.00000000000000    0.00000000000000
N        -0.32312691640249    1.61008591602695   -0.90015996308088
N        -0.54811615149261    2.71959408986652   -0.19978618562150
N        -1.47784151199466    0.35424869687774    1.09464462285275
N        -1.61362679917072    1.55947548535679    1.64346487523458
N         0.32312691640249   -1.61008591602696    0.90015996308088
N         1.47784151199466   -0.35424869687773   -1.09464462285275
C         0.38291756825553   -1.91662321956178    2.19813838681164
N         0.54811615149261   -2.71959408986653    0.19978618562148
C         2.51037877459140    0.39877674841351   -1.48076216055203
N         1.61362679917072   -1.55947548535678   -1.64346487523458
C         0.65353937644938   -3.27160839908007    2.33190782657414
H         0.23834766664322   -1.17576737953625    2.96247986794598
B         0.56251450596933   -2.65691934749940   -1.34706903601135
C         0.74997577618089   -3.73808361840290    1.03067644585307
C         3.33446978607961   -0.35175372196953   -2.30816349498187
H         2.62164281704847    1.41685768118262   -1.15659140773627
C         2.71996764137848   -1.59161037752601   -2.38059169514364
H         0.76344800821473   -3.82950503348630    3.23876590724896
H         0.90816849435167   -3.69387658970467   -1.80012034744994
H        -0.50747582673979   -2.26227338138347   -1.71726133748029
H         0.94400164387398   -4.72546881344105    0.66376514877600
H         4.24191474038578   -0.04050019533349   -2.78288040387933
H         3.00820518662188   -2.47503676110648   -2.91317753351012

