59
CSD_code = HUBBUC | q = 0 | S = 0 | Stoichiometry = C26H22I4N4NiO2 | MND = 6
I        -2.79997936617473   -8.06631218832963    9.30794202062134
I        -4.55057559745493   -3.32931221821312    5.92155749649504
I         2.24102271449629    3.29393686686642    1.40114663940767
I         3.99335032291488   -1.44896181669352    4.77937912908566
Ni       -0.27872802649658   -2.39244518322525    5.34799874258050
N        -0.74671330170153   -2.36136877070979    7.62001849608781
C        -1.89685049620450   -1.99308965697181    8.16642690768041
H        -2.42783174725714   -1.18855067117709    7.67444116134494
C        -2.41947493480146   -2.58741522751396    9.30375091848341
H        -3.37025024056637   -2.26589442497588    9.69818670741171
C        -1.69526239329799   -3.60081605622937    9.91024996847940
H        -2.06960911631042   -4.09684513027911   10.79324835490993
C        -0.47897266092701   -3.96817013032957    9.35986548113652
H         0.11703565249391   -4.74789911862188    9.80877408529406
C        -0.04302188322143   -3.33172957283677    8.20541973587675
C         1.25926276513643   -3.68315576998992    7.52970171393567
H         1.92445212112527   -2.81854517159867    7.61435140558042
H         1.72319195941726   -4.54876864884726    8.02311838777077
N         1.03773438159269   -3.93493308121408    6.10375377098473
C         0.54254790045857   -5.29159708654849    5.84604687639771
H         1.21510713127244   -6.04561171028749    6.28311983058869
H         0.50996109146550   -5.43148124005872    4.75978683964196
C        -0.84200209439044   -5.47149144193388    6.40489372350759
C        -1.13386984534608   -6.46169045766912    7.32148431824983
H        -0.35462247276472   -7.14102163572477    7.63573975110322
C        -2.40953531054872   -6.58766313094948    7.84329639117145
C        -3.42564939512936   -5.73138477871022    7.45265313965447
H        -4.42075109822956   -5.82351459389759    7.85963362485509
C        -3.12235405713762   -4.74395591249769    6.55088786312677
C        -1.84281537858655   -4.55621591804148    5.99125241398989
O        -1.65642836065883   -3.59004009995216    5.16436693036815
N         0.18931681790669   -2.41880279151778    3.07571787696665
C         1.34096020367798   -2.78166233412898    2.52878685695241
H         1.87472974577559   -3.58529336985261    3.01924635358788
C         1.86175106421127   -2.18267095069002    1.39308820800164
H         2.81398291357454   -2.49948226275571    0.99839976666724
C         1.13388503057107   -1.17078556210244    0.78842396746710
H         1.50664362095775   -0.67137491128727   -0.09333933663643
C        -0.08386029095623   -0.80913000535279    1.33926739474270
H        -0.68267007325863   -0.03060307394205    0.89199532481941
C        -0.51754525961176   -1.44951202509581    2.49233405045480
C        -1.82014807475093   -1.10287146392835    3.16976366615579
H        -2.28811640393428   -0.23898420837740    2.67711284061018
H        -2.48238094130756   -1.96989788767291    3.08661492223796
N        -1.59663971474210   -0.85030493890189    4.59518485644228
C        -1.10225070528682    0.50682816288670    4.85201115110937
H        -1.07078900564324    0.64765190614207    5.93816791045056
H        -1.77509473620963    1.25990009682605    4.41381454447319
C         0.28273715143344    0.68826757584516    4.29463479403824
C         0.57464083436274    1.68117668328060    3.38094495570729
H        -0.20513470919412    2.36009735330990    3.06711772160522
C         1.85090565633270    1.81044872199001    2.86138796812134
C         2.86770631374807    0.95472655344730    3.25145907487350
H         3.86342689667010    1.04969535391407    2.84673442682554
C         2.56440931339468   -0.03544214916634    4.15016589552702
C         1.28437990085523   -0.22647654429322    4.70752613365455
O         1.09873338427401   -1.19507616913643    5.53173827138994
H         1.92080611098753   -3.79992827694449    5.61184572941448
H        -2.47895330700165   -0.98574950533316    5.08836184851779

