80
CSD_code = HUBBIQ | q = 0 | S = 0 | Stoichiometry = C34H37BN6SZn | MND = 4
Zn        1.76531661202201    4.09800289739493   12.92801971571496
S         1.15512205458073    4.84309866050878   14.99830420598678
N         1.42216743586952    5.19835212998712   11.22716212211505
N         1.22895862064809    2.44330783382924   11.82089317654930
N         3.73553040457650    3.59233891669551   12.59388980829240
N         2.18584149580026    4.81480222955401   10.19539911571140
N         1.90060208885363    2.38679163608521   10.65862502831702
N         4.03335146299137    3.52451386676480   11.28882042161644
C         2.02441455414446    6.45082828777145   15.29402929235497
C         2.79198921198102    6.30837915478563   16.60511707645993
H         3.55205490735206    5.53685379006425   16.51866117928830
H         2.11132395129525    6.02846273657645   17.40522689370042
H         3.27391809133411    7.25031143919449   16.86513718952467
C         2.98148863614644    6.78615437168538   14.16009551469508
H         3.48068159496323    7.73355795180989   14.36914268469102
H         2.44254092612167    6.88800186330495   13.21860041130748
H         3.74428847014962    6.01543210008125   14.06097789613745
C         0.95965726272557    7.53547027820750   15.42342491489409
H         0.24747041719211    7.26726414658260   16.19985572046679
H         0.41770542673505    7.65202664391336   14.48911871853156
H         1.42113218426607    8.48801856797381   15.68246347272926
C         0.79020511276827    6.32082954183309   10.88501305661912
C        -0.20292401968640    6.95331825895366   11.74293175110669
C        -1.02462057533710    6.17247433996534   12.55446885254619
H        -0.91170158599290    5.09723239540957   12.55531427645478
C        -1.98932802727116    6.76771526792949   13.34518808932392
H        -2.61367872078251    6.15380888119549   13.97631692098139
C        -2.15014738188169    8.14373464236661   13.33170093252161
H        -2.90334606755306    8.60756306612277   13.95126629384561
C        -1.34059119601083    8.92579544459329   12.52348974824531
H        -1.46157505604707    9.99936292676865   12.51355583818322
C        -0.37279595829364    8.33632498460960   11.73174660865847
H         0.26746742673438    8.94730631203178   11.11194408459175
C         1.18700991713791    6.68517210309904    9.59247156881935
H         0.85661221986204    7.53071418502309    9.02458682703333
C         2.06600135847264    5.69783401265188    9.18663072853443
C         2.78452372200460    5.58289083381091    7.89099352549257
H         3.86135929655969    5.56395788429087    8.04907434704091
H         2.53582014811224    6.43288768754329    7.26138211760765
H         2.50356056755528    4.66727673776305    7.37384435567545
C         0.38319990572352    1.41249595407786   11.86480113782769
C        -0.53019236617209    1.17015204840537   12.97362022974479
C        -0.25711249212877    1.64036450584602   14.25601080200431
H         0.65438663123313    2.18686300799187   14.44855889401620
C        -1.14299892646534    1.41051277115697   15.29126488431861
H        -0.91772308842610    1.79385929423433   16.27463121144026
C        -2.30945716133221    0.69862628875759   15.06668424449375
H        -3.00122477426754    0.51824480807930   15.87636810596130
C        -2.58707219469305    0.21902333094229   13.79687893432109
H        -3.49656869806712   -0.33540812286033   13.61485124696858
C        -1.70722215618051    0.45268826695113   12.75764329163828
H        -1.93985899922067    0.09235861789453   11.76661910324478
C         0.52577562407603    0.66379497053243   10.68886453605492
H         0.01117925868688   -0.23552348574270   10.41941023776405
C         1.49826304378738    1.31216401948214    9.95358077707002
C         2.03602569304888    0.93222853987869    8.62092749903685
H         1.84355961276012    1.71504617597419    7.88944336903868
H         1.55751393065775    0.01531492207301    8.28746221957360
H         3.11117323960067    0.77069203211611    8.67066103352685
C         4.87556797468143    3.53470667710259   13.28308906957753
C         4.91859196515558    3.49846735322961   14.73943297604674
C         3.93795816138656    2.81211183970044   15.45224146452293
H         3.14453700123023    2.31241396938485   14.91641682653566
C         3.99184502574859    2.75371782385298   16.83182547866658
H         3.22218980164993    2.22679968310516   17.37497434444455
C         5.02616711544090    3.37259580567361   17.51480060564416
H         5.06631908178570    3.32889863334775   18.59314821194871
C         6.00938363929219    4.05095617745431   16.81234704167704
H         6.81574454736798    4.53643828879550   17.34279693816802
C         5.95881493589474    4.11402135149656   15.43229361683170
H         6.71765864461219    4.65475922267514   14.88516524946780
C         5.94445714225392    3.44853198272918   12.38342378894655
H         6.98668258720186    3.37625312878329   12.61825036749516
C         5.36654922175082    3.43575545974138   11.12754070487214
C         6.04199518873285    3.34739073246067    9.80690292467329
H         5.73272887586986    2.44924731042739    9.27534194072432
H         7.11853066770507    3.31699546992212    9.95162287975141
H         5.79292319025633    4.20781803240888    9.18864244975728
B         2.91876900631055    3.46366788269422   10.23617297576721
H         3.36973315307471    3.21108622037361    9.17710390392467

