117
CSD_code = HUBBAI | q = 0 | S = 0 | Stoichiometry = C46H61BN6S2Zn | MND = 4
Zn        6.23747886015523    7.74807792430258   12.28465272262738
S         5.96885600871739    5.47920970292537   12.26663971498288
S         8.00052388518565    5.18671118680570   12.36042662084177
B         6.64965300512616   10.63486528064549   12.22837103589441
N         4.72635454714866    9.03007119591695   12.19560201973066
N         7.16862339974264    8.71146874313025   13.75195706512951
N         7.22189321156974    8.65194807811880   10.81184941704874
N         5.14271374887883   10.30849911731549   12.15791508782395
N         7.21114794493630   10.03984109944104   13.53311015786686
N         7.35305446546398    9.97649289064415   11.02327471366177
C         3.40051799963625    9.01147662296709   12.10761043237869
C         2.94070952034382   10.32379232970327   12.01523740333519
H         1.92498080998759   10.64928810523361   11.93656217129935
C         4.07423811197382   11.12101635057626   12.05629820163885
C         2.65491139836339    7.71675931350045   12.07320023059738
H         3.19456913074870    7.00393152690488   12.70828890596923
C         1.22710559362973    7.87449005358119   12.58872523453149
H         1.22407508738461    8.31513151887240   13.58304401639567
H         0.74092691488135    6.90336250754510   12.63918517077349
H         0.64882659227996    8.51176595755698   11.92360970290444
C         2.66321546959990    7.16966777263794   10.64186454011155
H         2.17635751574621    7.86847843494976    9.96410804287569
H         2.13864227378045    6.21844913147535   10.60273602369929
H         3.68725902899960    7.01078924446622   10.30997562105632
C         4.15732197034523   12.61221100140633   11.96768459660546
H         4.99398618821593   12.94923475377847   12.58638937872336
C         2.87936908493913   13.27249437509493   12.48236516170985
H         3.00408378403492   14.35261787266828   12.50583547172139
H         2.64831595164899   12.92854100823703   13.48756007274072
H         2.03876587136262   13.04195347726320   11.83323644430873
C         4.42754223266137   13.02003905120971   10.51600735857971
H         5.34679753542680   12.56032573782509   10.16369932091332
H         4.52156941853059   14.10060899680183   10.43737542394429
H         3.60963707324919   12.69443783167415    9.87699221676414
C         7.86732265973911    8.33323538590685    9.69476763254508
C         8.44218796436913    9.48724988398973    9.16709995089292
H         9.03027418193401    9.56849527010983    8.27633956015703
C         8.09557051116839   10.51075820305954   10.03413498603835
C         7.90397334769296    6.93782911730547    9.16281315543546
H         7.25401087459292    6.32195177367401    9.79206665335434
C         9.32839557543829    6.38397038351363    9.23434379134488
H        10.00587970413823    6.99475702168270    8.64140986634934
H         9.35598237127907    5.36567590894989    8.85320371742286
H         9.67550054887600    6.37081532483087   10.26463654091744
C         7.37304866753553    6.90101783089689    7.72906477171074
H         6.36376072317094    7.30459945454596    7.68565189863502
H         7.35123884956692    5.87620021501103    7.36605370112706
H         8.00924426661144    7.48706783050994    7.06955329173577
C         8.49526409906847   11.94691898483300    9.90665604333893
H         8.03126751355270   12.52234089866274   10.71001893189032
C        10.01726947516319   12.07033698795488   10.02912885185812
H        10.36486691953402   11.63407494215085   10.96278241550352
H        10.31287599095842   13.11659035191437   10.00272426749738
H        10.50656055376431   11.55168066376677    9.20854651713067
C         8.02408331390559   12.51166776343215    8.56383538353131
H         8.26637184043256   13.56975302473688    8.49759465081075
H         6.94864253366765   12.39517802360208    8.45182559191943
H         8.51064317936550   11.99467317586604    7.74089234686009
C         7.69258398403933    8.46328928787509   14.94782029181153
C         8.08982985964162    9.67045210761338   15.52163900726181
H         8.54692140883769    9.80799401770066   16.47904087914997
C         7.76159254481602   10.65038884628446   14.60014130580384
C         7.98075258607670   12.12663485696534   14.70967084034800
H         7.16609988214301   12.63727635433159   14.18840444251188
C         7.97723550871298   12.57979356520809   16.16901058225592
H         8.83447772259367   12.17438922012220   16.69991554423376
H         7.06974951570887   12.25191964500529   16.67010976614955
H         8.02846619380419   13.66498728660131   16.21996295707720
C         9.30467789972042   12.49938975088857   14.03541329132294
H        10.13142759112102   11.99167680448643   14.52729658840573
H         9.47057789230505   13.57252916895946   14.09534623391753
H         9.28975412956029   12.20454607927499   12.99003394097962
C         7.81164959967228    7.07847405886819   15.49412732137867
H         7.21918706134250    6.41132656411527   14.86057149249770
C         7.27073118023907    7.00452123344535   16.92083812135820
H         7.86069521611354    7.62801522757180   17.58874903744281
H         7.31525832764690    5.97787298429011   17.27595100798036
H         6.23673861345118    7.34066878278170   16.95507230524218
C         9.27217500660125    6.62562140977158   15.44130497786580
H         9.63655491285169    6.66212803868120   14.41738374755815
H         9.35770044002989    5.60326418546891   15.80134208553428
H         9.89440470071684    7.27080120525460   16.05834426332162
C         8.18004961200091    3.34023382111087   12.73757588508642
C         9.55315090394982    2.95545010148515   12.23315902159256
C        10.61740311036528    3.84733312257497   12.30589393795858
H        10.45464119499910    4.83002199655912   12.72255829265836
C        11.87370707610195    3.48824907876051   11.85372869291864
H        12.68654627770237    4.19735292946396   11.91304187501580
C        12.09012510478473    2.22456754660558   11.33174783311212
H        13.07114004593236    1.94211612695179   10.97876554340597
C        11.04109628082455    1.32406777033122   11.26993980031078
H        11.20110830871271    0.33282278971219   10.87115832768546
C         9.78212910549271    1.68512030913540   11.71632971229099
H         8.97281166650763    0.97166413692113   11.66539908817673
C         8.05643390620479    3.20297317912506   14.23450521198831
C         9.12874641171179    2.80720262515486   15.02611156492481
H        10.07550078471802    2.55890321717318   14.57037089371187
C         8.99646667005985    2.72177466308847   16.40175873365645
H         9.84167355956813    2.41011045450598   16.99881635527471
C         7.79377646151839    3.03199946117995   17.01080862426719
H         7.69342867806250    2.96429932592707   18.08465137032689
C         6.71979297596580    3.42850029144980   16.23101416406575
H         5.77381074312240    3.67227984593777   16.69287678926400
C         6.84843079904598    3.51060864082568   14.85796505982372
H         6.00535947416216    3.82290341812784   14.26017872587470
C         7.12380537489733    2.59991773170927   11.95552695530632
C         6.96105873208998    2.89000656679048   10.60450224769417
H         7.57497678782915    3.65569926280383   10.15266080025505
C         6.02301481701225    2.21864374077791    9.84621102310400
H         5.90185227240051    2.46510978697308    8.80130261837520
C         5.23961445485140    1.23363396451875   10.42380400345594
H         4.50166345811229    0.70966526667976    9.83384950931930
C         5.41188593562188    0.92138612075358   11.76002404558086
H         4.81393911949273    0.14595109406481   12.21708653874855
C         6.34890005188433    1.59722858060404   12.52282537211114
H         6.47992595337183    1.33390447944349   13.56221276668903
H         6.81353281462484   11.80075125327077   12.20731436447289

