83
CSD_code = HUBBOW | q = 0 | S = 0 | Stoichiometry = C27H47BN6SZn | MND = 4
Zn        2.01159911012976   11.93854420757146    4.13408309153114
S         4.28023072834282   11.85610373547270    4.20132918507784
H         4.39708428599424   12.78499162243828    5.13269230253564
B        -0.93053369876316   12.11721566415370    4.12704394646924
H        -2.10686885779026   12.18543981645042    4.12047717658602
N         1.01244413213738   13.61945333547595    3.65073818703533
N         0.88445945162861   11.63218966157020    5.77915655163584
N         0.85125212083710   10.78705657947990    2.98042813284412
N        -0.31524837862396   13.41890589425981    3.58358663273081
N        -0.41504822419979   11.89863579676723    5.56104587777037
N        -0.45680875745666   10.94414574429642    3.25103011260723
C         1.28381512512090   14.81740198789251    3.14338485115649
C         0.09112624437261   15.41359154929431    2.73564577000589
H        -0.02952308680041   16.37793446637308    2.28879996648632
C        -0.90389500132669   14.49418434335865    3.02689654851112
C        -2.36754118833676   14.58475553605188    2.73076484867296
H        -2.91946046052664   14.08834036798522    3.53418761870755
C        -2.65776645074408   13.85055270868715    1.41680885524488
H        -2.12570494846772   14.32727296890465    0.59644196546383
H        -3.72318476066598   13.87263868246073    1.19922714530412
H        -2.33332649801254   12.81478470618284    1.48152996891629
C        -2.83340053690174   16.03720893760716    2.64991233834353
H        -2.56861069507770   16.57616764043328    3.55656615628181
H        -3.91359545174874   16.07383936855825    2.52902287144460
H        -2.37930529998154   16.54005039944526    1.80009308293637
C         2.68147440105118   15.34573157326234    3.10993055612416
H         3.36190505078130   14.48618838873686    3.10633870387675
C         2.94510985188288   16.16686351851828    4.37613997591349
H         2.28202652149410   17.02912058563021    4.41410559144562
H         3.97428375693619   16.51759017151292    4.38892834341170
H         2.77381215300481   15.55977691699691    5.26286524369516
C         2.93369620540295   16.18149370715001    1.85746345925288
H         2.70381937453296   15.60669144314009    0.96342897660241
H         3.97770092088383   16.48232598959500    1.81535957240349
H         2.31852468192551   17.07843688484035    1.86278243052849
C         1.06735587271632   11.47022002122590    7.08496270884874
C        -0.15432406786314   11.64177358635624    7.73545282603608
H        -0.34062215457382   11.57584349712120    8.78693932831698
C        -1.07380308610407   11.91317777268631    6.73536799741322
C         2.41689424071558   11.18288812820965    7.65808947401666
H         3.08479016339193   10.92819729768382    6.82719823202967
C         2.35986453957976   10.00284591214540    8.62722488559100
H         1.72823432388754   10.23759568144481    9.48093753949415
H         3.35789871564784    9.77020324816010    8.99058850915473
H         1.95838444072388    9.12211309508894    8.13132673276409
C         2.95769124977566   12.43471991800449    8.35440954202542
H         2.99847370016937   13.26870894123599    7.65643119563952
H         3.96050064582237   12.25078242622902    8.73221327002203
H         2.31629272745111   12.71340280322292    9.18806773081000
C        -2.52537675049800   12.24704330454738    6.87482842660931
H        -3.06286474773824   11.84023207078958    6.01348558054712
C        -3.11919455331963   11.64168819136609    8.14534118896079
H        -2.94323484582435   10.56908846727981    8.17780331727746
H        -4.19212321329370   11.81719146970537    8.17314187041587
H        -2.67823858172015   12.09403583428826    9.02975823101591
C        -2.68944467156351   13.77115104312143    6.87474706712719
H        -2.17268427028017   14.20301627589252    7.72907858384714
H        -3.74210409213089   14.03800639966956    6.93452434008990
H        -2.26943476580265   14.19766615559133    5.96705331726138
C        -1.16031159092282    9.97237842835542    2.63936122607978
C        -0.26143538914724    9.17166486994423    1.95354058837994
H        -0.48372153435971    8.30987467253887    1.35980793529492
C         0.99584963827908    9.72426277555985    2.19706624186521
C        -2.63959765612714    9.79881642925639    2.78007089251899
H        -3.10503812695697   10.78728998303224    2.83187001960605
C        -3.23102166669216    9.04784923638801    1.58871602901327
H        -2.96635403443052    9.53971454960810    0.65573390825597
H        -4.31522955801022    9.01965578565431    1.66948793931378
H        -2.86595563417948    8.02464415046169    1.55887074448077
C        -2.93249772640790    9.05451963347345    4.08773719773446
H        -2.48567732836750    8.06305271284150    4.06190352853793
H        -4.00552408333763    8.94832683663584    4.23010780594462
H        -2.51731815290454    9.59692190250731    4.93371888064093
C         2.34375936630373    9.26922554376432    1.74205593913614
H         3.05365484898549   10.08057618509441    1.93913263296009
C         2.77290130991537    8.04584778631695    2.55641046300945
H         2.80518255590588    8.29384769184681    3.61501277018532
H         3.76373733891127    7.72125239163495    2.24878021703449
H         2.07344850158042    7.22505492513854    2.40955399819204
C         2.34270898186398    8.95808083034016    0.24617101448099
H         1.67813238725730    8.12512155116151    0.02832792148762
H         3.34542991943021    8.69249062205291   -0.07955117994345
H         2.01190499320066    9.82351406478499   -0.32359464708217

