102
CSD_code = HUBBEM | q = 0 | S = 0 | Stoichiometry = C49H43BN6S2Zn | MND = 4
Zn        3.80760034929435    8.77887893931909    4.19375758808841
S         4.31208987591891    8.96019524185975    1.94802792285881
S         5.20208200990808   10.74447959319029    1.65133024217499
B         3.62844828630923    8.31740379878550    7.10813296476381
N         4.87939436217655    7.36613378536422    5.16917436087514
N         2.14068742273286    7.98636168093966    5.09715299398143
N         3.74431278092323   10.28006491183718    5.55648832292371
N         4.79192714606848    7.51369094954024    6.49990807031791
N         2.33348559831383    7.84502381324975    6.41910662436080
N         3.81972521634822    9.81094581823121    6.81161675483917
C         5.82805040737078    6.46707539100521    4.90805534777961
C         6.38779032974921    6.04200137584553    6.11927569966541
C         5.69846147069620    6.72383247393459    7.10432510905413
C         5.88700658411268    6.65445209100263    8.57679416974101
H         6.10752445855693    7.64077531312755    8.98125201471419
H         6.71237650440224    5.98607970928064    8.80662813117736
H         4.98806047461786    6.28350656211634    9.06591615051910
C         6.10285744175890    5.97883551716259    3.56384739554896
C         7.37740118461880    5.53760242723525    3.21503327359783
H         8.17692522175831    5.60050013724034    3.93701363424804
C         7.62143255909391    5.03118215718944    1.95311363575046
H         8.61494424782454    4.69725420890097    1.69068111099671
C         6.59495339068816    4.94839689587681    1.02645739256356
H         6.78473816047092    4.53854330115812    0.04503090600303
C         5.32352539879044    5.38013639282264    1.36560774737647
H         4.51926184700748    5.32163004131102    0.64783717939779
C         5.07512987564050    5.88788441738120    2.62693188980455
H         4.07476336448826    6.19831304129427    2.89548715777497
C         0.96843090132397    7.43269534305998    4.78440318085637
C         0.38696805150265    6.92058321954428    5.95134526368733
C         1.28205070241700    7.20466508373783    6.96465651478851
C         1.15827619369457    6.87925812748756    8.40954543145278
H         1.96225651646919    6.21608425788376    8.72401000684192
H         0.20656316974666    6.38637034910300    8.58845821417387
H         1.20695013659240    7.78254688526115    9.01457882030971
C         0.44975729498098    7.39701303638227    3.42381242410751
C         0.81013783198792    8.36841336778170    2.49275334116056
H         1.46723073402381    9.17360208883637    2.78851709695082
C         0.32668923381089    8.31528287046899    1.19977381283884
H         0.62591810607956    9.06902701945654    0.48731364365626
C        -0.53438460986542    7.29902871154615    0.82021293508999
H        -0.91324282599286    7.25772004511599   -0.19032734969977
C        -0.90902647999930    6.33482000811188    1.74173547600096
H        -1.58087297556755    5.54046212541779    1.45004571695691
C        -0.42102010256486    6.38028162896644    3.03376325436589
H        -0.70079958437297    5.61526050124939    3.74278087660301
C         3.88406985487410   11.60530534786305    5.59793582361342
C         4.07410614111812   11.99856520907896    6.92604804976415
C         4.01730073176186   10.83114434932753    7.66627384172123
C         4.15147392141866   10.67214332796645    9.13766865249253
H         3.24101051533503   10.25502480355046    9.56411391298674
H         4.33979925317465   11.64154799642670    9.59115655961700
H         4.97429231080091   10.00230204213287    9.38065710562359
C         3.80798886884177   12.43779782526303    4.40217676125966
C         2.83865317384018   12.18532458641319    3.43556342236855
H         2.12953348425792   11.38453288231655    3.59314888345186
C         2.77190728376854   12.96572252997094    2.29722283322449
H         2.02107473947276   12.75984556753947    1.54915701834500
C         3.67057160572970   14.00266212723841    2.11282342194448
H         3.62407882525675   14.60540799666742    1.21834805360077
C         4.63100300443756   14.26595248411362    3.07481254712524
H         5.33569112285150   15.07149516963477    2.93210619461624
C         4.69929368326994   13.49162861102841    4.21680733094824
H         5.45983732869282   13.68589971669162    4.95986298808820
C         7.09735817893584   10.56978435379549    1.83945056978306
C         7.52349980134199   12.02040504765763    1.88919119386871
C         7.01211464421099   12.91915890306200    0.95570375121882
H         6.31807545247124   12.56510492576019    0.20910860698142
C         7.38363671653137   14.24969300950427    0.97665090444501
H         6.97411061108150   14.93057953521596    0.24474500126162
C         8.27929977396186   14.70838322494493    1.92805880309493
H         8.57138487173177   15.74843191673770    1.94617754907029
C         8.80288811679475   13.82133157585070    2.85117601321701
H         9.51039054930301   14.16543958912271    3.59202912797694
C         8.43072869911666   12.48806433045971    2.83227013317900
H         8.86060294953901   11.80961752101184    3.55436535047211
C         7.63024370163655    9.84625599653157    0.63051273181196
C         8.51986455963220   10.45040267975479   -0.25210225521451
H         8.85985100528940   11.45932869501750   -0.07292114829729
C         8.98708922039440    9.76793820639335   -1.36130319322604
H         9.67839398480520   10.25594833544503   -2.03346528071280
C         8.57401195501837    8.47138123655842   -1.61052482144263
H         8.93562486205372    7.94216388695107   -2.48026426522138
C         7.69679174399440    7.85848530671761   -0.73281637767931
H         7.36682410273521    6.84605882641134   -0.90973286671104
C         7.23614928974368    8.53373677562427    0.38099006830691
H         6.55468614928454    8.03711557935804    1.05377864680747
C         7.39813342882992    9.87691587903179    3.13985308490498
C         6.75504899185352   10.31370542931953    4.29592827060791
H         6.04233184911830   11.12099247288886    4.21447726167973
C         7.07629154664481    9.78287938705365    5.53155071584807
H         6.58650681205500   10.15398554353632    6.42097937321727
C         8.05139654462843    8.80481139926206    5.63265800034097
H         8.31752003478913    8.39867873720370    6.59783724982227
C         8.69323477510931    8.36412212863982    4.48941732337845
H         9.47200610406125    7.61882786748747    4.56238354939546
C         8.36798592770495    8.88834528168089    3.25021398676565
H         8.89150109587299    8.54397797817458    2.37093201698767
H         3.56694682683003    8.13607936833299    8.27105525077643
H         7.16579665698862    5.31953057055623    6.25778197179575
H        -0.56082487243337    6.43235901333133    6.04884622939413
H         4.20797922644542   12.99538225650602    7.29336162068099

