41
CSD_code = HUBDOZ | q = 0 | S = 0 | Stoichiometry = C18H17Br2CdN3 | MND = 5
Cd        2.54134384838903    5.59932061702501    1.74849416309535
Br        3.72248695660577    3.46357306951368    1.07030148921364
Br        1.72564052737577    7.44436352073265    0.30042649548705
N         0.58136773942219    4.56337145257002    2.50384163162419
N         2.68653989667855    4.83431908293044    4.34694993008120
N         4.38539819725329    6.52378858794897    2.85541610638625
C        -0.53138289696489    4.62033139670522    1.77834324108441
H        -0.58540633186972    5.42164027764343    1.04989532689126
C        -1.57300696891104    3.72392748914151    1.93373147423628
H        -2.45919680546266    3.80778443090997    1.32600840301486
C        -1.44127379463288    2.71845972607902    2.88074189827486
H        -2.22462241082687    1.98996596843058    3.02509856126650
C        -0.28778775750781    2.66570454951074    3.64134301013083
H        -0.15124401494012    1.90055988202845    4.39022543646973
C         0.70700872004291    3.61789338165080    3.43077910638126
C         1.99220415215410    3.55638056576056    4.22048603382760
H         1.78918402763202    3.11342414330398    5.20727180328922
H         2.64474585662335    2.86815677772970    3.67105782422281
C         4.13582753367807    4.68990216221434    4.44945177451542
H         4.42812400843927    3.79350016880949    3.89087768781132
H         4.44775659274626    4.55185280851392    5.49560447334468
C         4.93170489826985    5.82127151599895    3.84381064227299
C         6.23057023421397    6.06804055051456    4.28293470673913
H         6.65129466319414    5.47433996440428    5.08010775222838
C         6.96354551112715    7.07595386870548    3.68415473905782
H         7.97328017613155    7.28208122936010    4.00568524290979
C         6.37712991453605    7.81597958027134    2.66755807724691
H         6.91011560423679    8.61446381933644    2.17767206082078
C         5.08563711995817    7.50035531085949    2.28640739412913
H         4.58482852881507    8.04852725701558    1.49587899561558
C         2.10123054269239    5.76419146172818    5.23459215238657
C         0.75726381062729    5.67338067249891    5.60503664783617
H         0.13227797434111    4.87617737750400    5.23734007647952
C         0.18056480689095    6.61052024461821    6.44201002457350
H        -0.86295327504181    6.50908744714144    6.70172271825384
C         0.92268710369012    7.66195268883227    6.94679678879013
H         0.46973226402828    8.39214200954954    7.59883582784953
C         2.25726554933024    7.75891490170583    6.59879834139951
H         2.86040904554373    8.56840091140548    6.98229408892854
C         2.84086210723735    6.82555230677335    5.76280844615178
H         3.88364634426296    6.94844682262444    5.51950940568811

