82
CSD_code = HUBDEO | q = 0 | S = 0 | Stoichiometry = C33H43Cl2HgN3 | MND = 5
Hg       -1.31133625568439   -1.68653230395300    5.53825825883279
Cl       -0.89926423866115    0.34848550652144    4.63368319052236
Cl       -0.26806064562421   -3.29003253289266    6.84928563556842
N        -1.60571175741311   -3.14730973762359    3.51735620105452
N        -3.14575086832025   -3.37295292337956    5.66456794435018
N        -3.15710217335645   -1.18902243589298    7.16625931755235
C        -2.20337685211940   -4.25854627066177    3.67365618244154
C        -2.91354604780602   -4.46841730203948    4.95194093561673
C        -3.28923391896514   -5.72917494727852    5.41545712566570
H        -3.08531322990693   -6.61761569337635    4.84065682714074
C        -3.90047563855985   -5.82060600797867    6.65445299946230
H        -4.18822070247023   -6.78416025338606    7.04838657938819
C        -4.12317699663536   -4.67158897844045    7.39410209524227
H        -4.57386436531296   -4.73065032661076    8.37121533963032
C        -3.71815176431655   -3.44821744023148    6.85989903328135
C        -3.85142583791670   -2.16846600185088    7.58570237328407
C        -2.21783077792792   -5.35882565968679    2.65726568825461
H        -3.22220418574567   -5.75980650854861    2.53780256238841
H        -1.55856574319678   -6.16338478165735    2.98232039450630
H        -1.85642633772224   -4.98546749369000    1.70115559268831
C        -4.77503950686022   -2.10651864721460    8.76371670645181
H        -4.94460106168312   -1.06978846871215    9.04794877173560
H        -4.32394466598342   -2.62390841633463    9.61016859725340
H        -5.72565452990271   -2.58309210367358    8.53283322824493
C        -0.90998044823569   -2.80635169116558    2.34322006552682
C        -1.56281809229739   -2.01407053432047    1.39157443411726
C        -0.87172687754762   -1.65565016970045    0.24419673992672
H        -1.36406844426336   -1.05906044681481   -0.50810393763635
C         0.43966953242725   -2.04594801523822    0.05242537504580
H         0.96538762907682   -1.75495161270799   -0.84479613891093
C         1.08304249015964   -2.79430602125942    1.01907658300111
H         2.11520361837608   -3.07313385226286    0.87417951560087
C         0.42477593444435   -3.19344970205907    2.17337324958524
C        -2.98984436602248   -1.56416238928105    1.60607309696662
H        -3.30116818895410   -1.86378890288006    2.61402418905958
C        -3.09380184460488   -0.04095449793105    1.53028832697494
H        -2.43034879290890    0.40988704340122    2.26374467286476
H        -4.11330358091016    0.27188456002873    1.74523650533561
H        -2.82499869378789    0.32658716340912    0.54347481125394
C        -3.92273825504180   -2.23097553668313    0.59154625274009
H        -4.95302968726077   -1.93548527430590    0.77749559249568
H        -3.85781462271102   -3.31539964772764    0.66064313306241
H        -3.65956028470059   -1.93725399330135   -0.42170055842576
C         1.16119807912428   -3.95183908965762    3.25319516922575
H         0.44315518466873   -4.30700719091246    3.99986374440760
C         2.12045425323555   -2.99273806908046    3.96373839465076
H         2.87274042748289   -2.61416887473699    3.27530332272254
H         2.61545419063688   -3.49917481609621    4.78882300779296
H         1.56646310745265   -2.14230029065415    4.36820029873258
C         1.90904650662647   -5.16695275952155    2.70272397312511
H         2.73433301754199   -4.86546831092708    2.06313167657728
H         1.24054912723736   -5.80194275895621    2.12374394848320
H         2.31615559902342   -5.75093080331003    3.52498674385196
C        -3.18800245284304    0.08685382601345    7.75522885168587
C        -2.44473548330602    0.35831490538247    8.91091475565984
C        -2.48269177260847    1.64530400739373    9.42818999093413
H        -1.90817676634610    1.87864590023876   10.31111874914955
C        -3.24369039602689    2.63252031348495    8.83285840561515
H        -3.27297199929620    3.62386643880775    9.26005895510342
C        -3.95101195783407    2.35505509353932    7.67854393827161
H        -4.52995771634146    3.13580750808325    7.21069432734065
C        -3.92161244501038    1.09074440905301    7.11098243702830
C        -1.54257016543650   -0.68696565836579    9.52483145738415
H        -1.76657040854819   -1.66414832757775    9.08485989225761
C        -0.09137790972538   -0.35194246198196    9.16853029221438
H         0.02272565851099   -0.29764488513349    8.08358894211455
H         0.57570444568831   -1.12544819167338    9.54149017700369
H         0.20191042206286    0.60624645516461    9.59188213671493
C        -1.72358099490091   -0.79704640061595   11.03946113069972
H        -1.15578065915139   -1.64446416979740   11.41681220654326
H        -2.77215594917676   -0.94067936003708   11.29423785477536
H        -1.36820304111080    0.09705994307807   11.54448481306506
C        -4.68494766054756    0.78527933823946    5.84269633585968
H        -4.34493463903455   -0.18734376178347    5.46472472130570
C        -4.40058983360740    1.82136311599060    4.75618643331223
H        -4.89450686777683    1.53085266912276    3.83189913046750
H        -3.33106483188503    1.87699332815179    4.57300811995128
H        -4.76166788109119    2.80683077111617    5.03765219089258
C        -6.18476663463682    0.69663492043591    6.13723330085208
H        -6.38910134336698   -0.07391257505259    6.87858182562179
H        -6.73370722045443    0.45485397639023    5.22958113572786
H        -6.55331191236253    1.64587508556963    6.52009372373367

