86
CSD_code = HUBKUK | q = 1 | S = 0 | Stoichiometry = C41H41P3Rh(1+) | MND = 7
Rh        6.85859641503001    3.85293016807358    2.60867615635745
P         7.28434168330198    6.08133482191270    1.86146937182576
P         8.94397258749338    4.00850442440705    3.43556596911268
P         6.20670944397999    4.48369087765151    4.83791061406810
C         5.29409788001817    3.75418182772741    1.04785480840469
C         4.83963618577191    3.07180043650475    2.15769141679152
C         5.27971872737164    1.61958971192636    1.97838579350107
C         5.19755546789115    1.46960580311897    0.45226323289367
C         6.02620727163375    2.73347075350446    0.18056818254573
C         7.25749468804956    2.48716212233013    1.05249569011161
C         6.78576016787072    1.77944726349420    2.19242188885684
C         9.02045316660858    6.56021151959491    2.35557794823302
C         9.88519098480523    5.31776761140854    2.53838288124781
C         8.93428677489660    4.61213288882333    5.18562010149239
C         7.67502422516111    5.41772683895762    5.47551247140081
C         4.93075523065494    7.28935227483366    2.58548443660996
C         4.09047511015062    8.33519764732455    2.91930208004146
C         4.60825154987937    9.61005619152198    3.07621843162190
C         5.96301894613948    9.83633989107395    2.89010802293773
C         6.80463387410104    8.79622013706425    2.53820628158870
C         6.29068020473096    7.51145136466091    2.38766708919684
C         6.63288213831255    7.32842534462314   -0.60040527657325
C         6.72963501428798    7.45687598962705   -1.97566431432060
C         7.54386090458435    6.60613667043300   -2.70363137397719
C         8.26114350376517    5.61271497462823   -2.05503489095802
C         8.16306068106272    5.47650100041335   -0.68424818191507
C         7.36010910529271    6.34191797250749    0.05538282558719
C        11.24470837873596    2.47840751393771    2.79065378267189
C        12.01721563088353    1.33396038239761    2.89529941305921
C        11.61881035415824    0.29176246947534    3.71502341139202
C        10.43912322378183    0.39048135509631    4.43701473331915
C         9.66514613040633    1.52982833152614    4.33762363928905
C        10.06702896343325    2.58780613887666    3.52183663762887
C         5.88776790906838    3.55542838392771    7.46324021311580
C         5.80244024939739    2.57588184080039    8.43389011221003
C         5.88823432885184    1.23635273164751    8.08448769283592
C         6.04905928195772    0.87595931061636    6.75774073440097
C         6.13491136652101    1.85499292127554    5.78283992402083
C         6.06768739905771    3.19798981304837    6.12912582755267
C         3.56076454663286    4.91857512661892    5.39835254981318
C         2.43932194713306    5.63097871221336    5.77438775917008
C         2.55471273156126    6.97086045552839    6.11114754965545
C         3.79182527904537    7.59002354319145    6.06453113325581
C         4.91713964832714    6.88146415939854    5.67973881830153
C         4.81052492402106    5.53506018174780    5.35365643109158
H         4.93069866619219    4.69877247656601    0.66429508849396
H         4.04726078609420    3.38003977230120    2.82704764079941
H         4.76924120278561    0.87877057005578    2.58801660770034
H         5.67424210004924    0.56065816140221    0.08785186223470
H         4.17930877289982    1.53485068338935    0.06943310431971
H         6.20418031403096    3.01731925724911   -0.85275514394530
H         8.24240598538615    2.35224102041986    0.62196038619043
H         7.37134837300148    1.03759323739836    2.72177713974828
H         9.44904368926379    7.21881354035009    1.59446638018300
H         8.95822066839712    7.11364756907866    3.29653159735239
H        10.80866780771418    5.54545652776742    3.08150461877337
H        10.15128437145124    4.90664451523920    1.56014764963218
H         8.95526702725381    3.72604652633644    5.82828282168937
H         9.84446570650318    5.19068783288066    5.37457243258028
H         7.70216697450230    6.37817442313634    4.95310471508088
H         7.56900535078301    5.60279464165797    6.54810731481137
H         4.53588908005914    6.28613701609094    2.48139921523989
H         3.03590586500018    8.15447749269948    3.06163357580658
H         3.95698852518454   10.42902843484130    3.33998427162670
H         6.36507154738439   10.83129306193734    3.00888877112738
H         7.85332125416839    8.99129894415175    2.36920205692763
H         5.99285363336594    7.99654630681709   -0.04262200852701
H         6.16448420407908    8.22648805884399   -2.47926094102230
H         7.61532554171434    6.71161327010470   -3.77512110924484
H         8.89080821369548    4.94211503906879   -2.62072447690518
H         8.70164502063632    4.68717232922709   -0.17692326046124
H        11.57120710671839    3.27998993945742    2.14589723572899
H        12.93472673749472    1.25696872956864    2.33197721522120
H        12.22468185181778   -0.59781762169325    3.78984066734408
H        10.12415651159538   -0.42194737352362    5.07428920997279
H         8.73995959237689    1.61019897417511    4.89500681796519
H         5.79995715946828    4.59763372103727    7.73810049748634
H         5.66388936245918    2.85596039702645    9.46718081365182
H         5.82017808705323    0.47572179586914    8.84693240153946
H         6.10290114980326   -0.16671303466544    6.48170541654333
H         6.24504576578144    1.58531803822991    4.74150131809597
H         3.48146545002205    3.86556987398862    5.15668123493477
H         1.47696323634116    5.14318403003991    5.81175157968529
H         1.68158292795285    7.52916457294356    6.41194262452417
H         3.88502491638357    8.63274678855379    6.32850271746373
H         5.86978523731462    7.38748056050826    5.64001792016864

