20
CSD_code = HUBLIA | q = -1 | S = 0 | Stoichiometry = C7H8NPdS3(1-) | MND = 4
Pd        4.93375799958100    1.99256840033952   10.81056442447277
S         5.50541982777769    3.94775264085401    9.62264579278149
S         4.78007044740351   -0.14117525047704   11.83304529623681
S         2.99092413875158    2.80518852973342   11.65804281886715
N         6.66732595565132    1.27379556850417   10.06814960737458
C         7.26648687346097    0.22437387164481   10.64969742181298
C         8.46084777798704   -0.28521701171265   10.16144803345115
H         8.91388352672062   -1.13970565247843   10.64242085296873
C         9.06281417158099    0.32172793183983    9.06993328138024
H        10.00012068365533   -0.05001892782849    8.68047395553178
C         8.43858178574019    1.41420661403571    8.48729495116634
H         8.87503156523160    1.91425309339223    7.63528672716703
C         7.22904622582149    1.86026780777670    8.99941611981937
C         6.46927908180735    2.98525168516801    8.38089640064499
H         5.74501177494257    2.58111221825247    7.66314634353257
H         7.13588260855620    3.67486360013959    7.85695965182617
C         6.60560639857872   -0.34047636225240   11.86382925122903
H         6.96850311211506    0.19119802569351   12.75219075501767
H         6.83112464837421   -1.40454452562446   11.97735255178987
H         2.74338139626138    1.73567774299952   12.40980576292931

