30
CSD_code = HUBNEZ | q = 0 | S = 0 | Stoichiometry = C12H12Cl2N2PdS | MND = 4
Pd        4.66817684789690    3.46325140945162    9.42215044830289
Cl        5.18050048111827    2.06486336217136   11.07891007774920
Cl        5.35611381038039    5.22192069986655   10.60482893426834
S         3.70511485625322    1.83883645186765    7.98567249984174
N         4.40462807420858    4.79708765328318    7.74917412467890
N         3.12621749653801   -0.19296904573949   10.03697880057261
C         3.07260453208592    3.00258884379623    6.76859851515550
C         3.44819057395717    4.34720511906733    6.79216213684645
C         2.85489387301819    5.22664709836632    5.89212706502263
H         3.11940176592147    6.27396036690935    5.92338676829568
C         1.93133659006550    4.76745786662502    4.97021544788383
H         1.47786375389891    5.46130552925608    4.27955297502967
C         1.59281734817525    3.42435279604189    4.92982430390258
H         0.87716893505925    3.06649074954473    4.20685182537680
C         2.16151944377223    2.54236526032641    5.83125566291957
H         1.89220046073141    1.49784915219746    5.83212723449572
C         2.40538125782120    1.96994011955609    9.24195643348567
C         2.28327940113321    0.89089129928201   10.13174058044376
C         1.24005871317153    0.93192860512017   11.05852475069400
H         1.12296503184732    0.10100098398938   11.73819801832401
C         0.38713425246212    2.01442035290917   11.12787258531277
H        -0.40426572954974    2.02502638271827   11.86139657756614
C         0.55625658887466    3.09415071551781   10.27729323151090
H        -0.09202683042651    3.95339140338970   10.34379164169383
C         1.56906776907193    3.07463528760633    9.33133276568462
H         1.66519688031895    3.90539087684591    8.64088909066287
H         4.08442439603960    0.04192817551875    9.80560427005318
H         3.08010914792793   -0.81621919709668   10.82985026825157
H         4.25505088871549    5.76527667188940    8.04270155489189
H         5.36801938954188    4.72472500972539    7.40043141109597

