41
CSD_code = HUBQUR | q = 1 | S = 0 | Stoichiometry = C12H22CoN4S2(1+) | MND = 6
Co        3.56710761398952    0.26082742246479    2.51026002685930
N         3.04612803842714   -1.67610027718278    2.08078954808473
C         4.22235207386886   -2.54569046456549    1.88231600323163
H         4.37671013621714   -3.13738766009023    2.78468274507595
H         4.04708352140499   -3.24474904771547    1.05950366185660
C         5.49892935262172   -1.73734475006224    1.60904459676136
H         6.37204093890652   -2.36981152723373    1.80467969801383
H         5.54782195417053   -1.42729328207426    0.56573433061606
N         5.49052456866539   -0.53647880628596    2.44999559764155
H         6.16804613336811    0.14328833782083    2.10964544765191
H         5.79398885038205   -0.77626776995453    3.39204732411564
C         2.26563291016437   -2.10236432898966    3.25221141862567
H         2.09464705049235   -3.18440992332469    3.25489791522369
H         1.29897471833189   -1.59761384368286    3.21859597729400
C         2.99997904130900   -1.66720051226581    4.52430470580778
H         2.36985931995504   -1.86763747828603    5.39600740735042
H         3.92688693597321   -2.23209349623518    4.64571746847377
N         3.32526362315733   -0.23372432188469    4.41155884196886
H         4.05203887877480    0.02762259917717    5.07840481784635
H         2.49585533942288    0.30962077299239    4.67385923358024
C         2.24549663714415   -1.55120376504901    0.85615093875812
H         1.29497640037993   -1.08442006825791    1.11829354185354
H         2.04196528169110   -2.52816273207620    0.40304249340291
C         2.98027320600398   -0.64681135818336   -0.13787237036704
H         3.82518065774830   -1.17876027369404   -0.57623645703375
H         2.29952750162766   -0.37793484089254   -0.95018193288698
N         3.46525556749322    0.55910529773577    0.56863473564541
H         2.74988638544135    1.28763211656238    0.49038377734911
H         4.29604484599550    0.93445694396654    0.11109398819865
S         1.47362293391992    1.13396065086100    2.61768676261913
C         1.74046770322728    2.86641946043592    2.75920166748539
C         0.65348479378618    3.72720477852011    2.71687907814122
H        -0.33875580788829    3.31924077295780    2.59665975365369
C         0.85639217213634    5.08938950425171    2.83457514017783
H         0.01025216254321    5.75721317470244    2.80354590881295
C         2.13936233291126    5.59231030242191    2.98924117022194
H         2.29773350318080    6.65529420279166    3.07904047228139
C         3.22442080885689    4.73732019716970    3.02644783687295
H         4.22818942706553    5.11509536231359    3.14578389086491
C         3.02789624968608    3.36727977175206    2.91242145353996
S         4.40575623744934    2.28317885910649    2.96025138433212

