60
CSD_code = HUBRED | q = 0 | S = 0 | Stoichiometry = C25H30ClN3Pd | MND = 4
Pd        8.71796452306644    5.46344931926959    5.32433425471139
C         7.26292607889699    4.12121652498288    4.79192869810191
H         6.60062424364942    3.94909092757507    5.65039571025802
H         7.75298095884102    3.17380651381933    4.54107257402319
H         6.67899194616225    4.45719619000595    3.92984073678796
Cl        9.52489953448456    3.86323020917873    6.64573752852359
N        10.28699869490439    6.87366362662693    6.04686286506224
N         8.76003230731100    8.64045178763144    5.79133948074526
H         8.59145063376234    9.59676578197274    6.07333857871251
N         8.04321480777079    7.06116839968170    4.21909006514088
C        11.35313930119922    6.35846269150349    6.65669479742642
H        11.72149166046600    5.42428069043194    6.25117843691164
C        11.96120663304022    6.96165831072993    7.74209484881759
H        12.82151294390589    6.50801185648100    8.20498368085528
C        11.42446380938876    8.14708181470548    8.22849509628334
H        11.85531077207350    8.63681512519000    9.08876183430891
C        10.33609557215682    8.70146690309901    7.58775048091009
H         9.90157808896881    9.63064746229773    7.92540706054815
C         9.79284445299836    8.03080260587736    6.48437857109026
C         8.15261981430386    8.28337742158161    4.60131085856648
C         7.65007667335338    9.46015399196149    3.84424411521385
C         6.94971767195015   10.47111363913366    4.50348713087107
H         6.71320454441769   10.37549599908181    5.55470031648583
C         6.50143656922790   11.58142882457893    3.81322453327703
H         5.95230776088099   12.35020720397498    4.33583823317232
C         6.74968536994639   11.70414646926912    2.45613762613469
H         6.40005261509152   12.57198473060325    1.91805382568901
C         7.44158858631540   10.70439862593224    1.79348305510100
H         7.63637761058609   10.79084329808821    0.73534128022713
C         7.88784384094858    9.58865405868215    2.47800418095910
H         8.43084219385052    8.82245654236702    1.94968977800183
C         7.43923412957025    6.72037215549296    2.99403596624669
C         6.07276639502982    6.94795625163096    2.76659602337097
C         5.54067891261557    6.59123512449674    1.53512292432573
H         4.49055291562230    6.74916089366612    1.34582746328317
C         6.33113184300362    6.04240259241554    0.54629615214850
H         5.90386554956794    5.79594390858664   -0.41418486092055
C         7.66525486990826    5.77948870059905    0.79675557535331
H         8.26016863116148    5.32124417504427    0.02426743709803
C         8.23882302329065    6.08489875597166    2.02143711120403
C         9.68215668887415    5.73180085986941    2.32267850980292
H         9.72278424901169    5.35905662518707    3.37916101199232
C        10.22542647315163    4.60988619430051    1.43842913233304
H         9.54347967438509    3.76349072103882    1.43423412725940
H        11.18170994940293    4.27253846667417    1.83202913678306
H        10.38583198266205    4.94752079415039    0.41608098694264
C        10.59451317816005    6.96001624239732    2.21354144293164
H        10.52609300933940    7.39559062776896    1.21679731924261
H        11.62803098916205    6.66907817449813    2.38890867956365
H        10.33103657527293    7.71931994580329    2.94750323294751
C         5.14734027998952    7.48653603768837    3.83565375470332
H         5.73762556010380    7.84359759022325    4.68364989750147
C         4.30085530988491    8.65153639075053    3.31534407701467
H         4.91760848473560    9.38106629562520    2.79608179895849
H         3.80155977391657    9.14782485606704    4.14481442318374
H         3.53650890815791    8.29835639947431    2.62839635265760
C         4.24126377888892    6.36642198793057    4.35672137335770
H         3.68193886290501    5.91095191306643    3.54315743725931
H         3.53567601088690    6.76691532513259    5.08165054776076
H         4.83650377740968    5.59806444813640    4.84231273278121

