41
CSD_code = HUBTIH | q = 0 | S = 0 | Stoichiometry = C15H19O5RhS | MND = 6
Rh        2.29018547028783    4.61085539359566    8.20250258853805
O         2.21960987417182    6.63410227114566    8.42965233013079
C         1.78020483092114    7.26119941455827    9.43420452775338
C         1.23906089239072    6.69543217052946   10.59053091455283
H         0.89250147746194    7.36201579915677   11.36413353649002
C         1.12123977843158    5.32365982096569   10.80980374640063
O         1.48575523374952    4.40077352307146   10.02342581997840
C         1.85308318538734    8.76998098329851    9.36812809373886
H         0.86080362151002    9.19618475712755    9.49451464126663
H         2.25962760226707    9.07680130170385    8.40837221683795
H         2.48961270264247    9.14542007317706   10.16627071969280
C         0.50326933532418    4.87862028944122   12.11580969190560
H        -0.50788284062798    5.26986090409454   12.20124023621820
H         1.08718030553267    5.25762052800617   12.95139780423677
H         0.47565114901789    3.79318406274165   12.15736309497833
C         1.49238623685146    2.61426804744534    7.86444058588049
H         1.24386022540944    2.47510684065924    6.82018487518414
H         0.67274850546572    2.49413525427614    8.56640602391298
C         2.79305294032862    2.49337900674229    8.29333797952121
H         3.00566918323275    2.26501677955438    9.33330087083054
H         3.56181978797725    2.23391388838096    7.57742818888038
C         3.88626507122397    5.00788087177106    6.88786933493890
H         4.57833286937343    4.18194656375185    6.76810562080603
H         4.33457301849116    5.96271467516915    7.14732328460084
C         2.69171751914400    4.96066049139758    6.17917571840530
H         2.17971919594231    5.84525941919842    5.82017062050438
S         2.54268628060618    3.65723862845484    4.98085181279054
O         3.41145685747382    2.56059820032059    5.29106642334916
O         1.18697568020080    3.37999044047213    4.63684761918325
O         3.15295448110807    4.44895949196646    3.68947913888041
C         4.51984469164784    4.61207448179657    3.63982251876624
C         5.34875405760305    3.53435088267245    3.35857586854825
H         4.90847456789038    2.56362800626954    3.20093510700422
C         6.71828304441459    3.72476522393781    3.30215933704477
H         7.36379959241559    2.88739240061389    3.08409245036095
C         7.26193001942169    4.97972664006530    3.52154537394104
H         8.33098741334073    5.12250048104181    3.47396459643338
C         6.43099117192056    6.05174698064300    3.79994289943048
H         6.84983075838332    7.03237936505803    3.97011919580285
C         5.06062144740378    5.87204532619477    3.86804825654999
H         4.40146276425112    6.69921031952815    4.08125633572823

