58
CSD_code = HUBVUX | q = 1 | S = 0 | Stoichiometry = C27H23BrClN4RuS(1+) | MND = 9
Ru       -0.67211691208419    1.83153121266503    5.51392671603809
Br       -6.12077687127148   -4.13778664382960   14.95720833674510
C        -3.12875451407827    0.15533883763943    5.37214267363459
H        -3.08727462604761    0.36150360169387    4.31084320444994
C        -4.10421906754585   -0.69717878802553    5.88490226249164
H        -4.82771770857124   -1.12953606581769    5.21310095069030
C        -4.13303185839768   -0.99081448288310    7.23175966392002
H        -4.88148043470504   -1.65522853009417    7.63324804246754
C        -3.15675537693660   -0.42241638981006    8.06244592731523
C        -2.98907367657681   -0.61844753778777    9.45528263024245
C        -1.95103427161229   -0.02597699733005   10.19913624269512
C        -0.98159026204398    0.81679714813221    9.58454079610284
C         0.11155095461660    1.41457461535439   10.21932876567866
H         0.26073375093832    1.25820644218139   11.27516484592953
C         0.97498593808987    2.17175356464060    9.45482397001369
H         1.84094296344206    2.63673690510363    9.89743388238815
C         0.74287735538309    2.33447024580337    8.09002479084605
H         1.43491036590657    2.90394253718056    7.48310861094227
C        -1.14718113113696    1.03514157478198    8.20112405627198
C        -2.20631823766522    0.43623007155577    7.45848809610368
C        -3.08893094763429   -1.18800054370282   11.57784398508648
C        -3.54142724456861   -1.79638325359335   12.78684795015965
C        -4.62378043470314   -2.61851782881562   12.98682298335248
H        -5.31337239939332   -2.93825023053604   12.22700848591239
C        -4.73967024363070   -3.00949895715889   14.33253716633330
C        -3.76214719172163   -2.49269456216887   15.13469956460448
H        -3.63727238722562   -2.64468187026567   16.18835094095791
C        -1.48969256252901    3.89204958506665    4.82966792260680
C        -0.13474647057823    4.01939938714626    5.20873736416512
H         0.14605645929311    4.78240663768323    5.92718983918228
C         0.88351176844047    3.27948604885070    4.56500913942929
H         1.92367852573599    3.48612574543716    4.79325467691244
C         0.57258039822082    2.35998847038145    3.54301366325435
C        -0.79218406380326    2.16861487965093    3.21246038872743
H        -1.04836362921164    1.50411082293375    2.39450651291662
C        -1.79715427093096    2.92955181507103    3.83894069491678
H        -2.82236990373711    2.84745103300576    3.48935707165137
C        -2.56669425297541    4.75686824310494    5.44047051457461
H        -3.51956225193681    4.50303344864610    4.96271732702098
C        -2.28489936410483    6.24025064032939    5.18804281000386
H        -3.11621795571069    6.83805822825631    5.55095547784584
H        -2.16401851767652    6.43130381631475    4.12442843057033
H        -1.38433105277298    6.56443263552825    5.70298601206812
C        -2.69320864893824    4.46638174708045    6.93949976304305
H        -2.87460471055514    3.40229035710635    7.10685551212481
H        -3.52439464927940    5.02701608103224    7.35837882021650
H        -1.78839685998611    4.75364216743799    7.47107016727909
C         1.64115311061501    1.60521325897959    2.82827422204638
H         2.59816225351247    2.11656156286315    2.89630901896000
H         1.38005936105298    1.45773057840954    1.78263266374498
H         1.75168106186976    0.61905348417170    3.28682994203875
Cl        0.45781444274658   -0.20937166660765    5.51509242333014
N        -2.20902923510986    0.72646145125551    6.13654611935713
N        -0.29896385081158    1.79827166134882    7.47262008583743
N        -3.69763509776904   -1.35436246837982   10.35936163307521
H        -4.50692225875283   -1.92269830868358   10.17364183534402
N        -2.04219924754997   -0.39431165418246   11.49477251553735
S        -2.67088405767897   -1.51042376415721   14.26013189079917

