58
CSD_code = HUBVOR | q = 1 | S = 0 | Stoichiometry = C27H23BrClN4RuS(1+) | MND = 9
Ru        3.43931860536279    7.61748629188277    4.79888950221386
Br        0.18540496492602   17.54993362801410   -2.36706599561087
C         1.84864289601550   10.01316563776635    5.60350409558740
H         1.76588704362834    9.51347770191802    6.55959864462272
C         1.20870941953233   11.23332655223030    5.39124962550806
H         0.65063200256934   11.67851808817680    6.19888594471942
C         1.28179901235864   11.84971347922641    4.15941548674673
H         0.79374356449978   12.78825102653393    3.95358642164843
C         2.00128028605009   11.21204880174867    3.14373992392332
C         2.14995486029945   11.67228935601122    1.80434967092513
C         2.84841720620069   10.92004809995022    0.84051982202561
C         3.46563930003601    9.67773603946933    1.12330107635441
C         4.14560767985888    8.83797283082141    0.22908080175060
H         4.25408462335351    9.10895505822995   -0.80905404582592
C         4.65348591295590    7.64657849069615    0.70072553807035
H         5.16377271328838    6.96662309476908    0.03813127488161
C         4.50218588826230    7.29997235452420    2.04210661226537
H         4.87799849582104    6.35341275204040    2.40702037142462
C         3.35357669667638    9.24368042189358    2.46690535388081
C         2.62807132634461    9.98483264585643    3.44388988269513
C         2.05173403488144   12.78612390319550   -0.01216941701847
C         1.75857763284060   13.81923748634601   -0.94881022974768
C         2.08697376730292   13.90893041319480   -2.28270349603770
H         2.63611177217749   13.15776434764184   -2.82156109984673
C         1.63001269169824   15.08891038324710   -2.88213343850809
H         1.78370488842512   15.34768517851110   -3.91345566307532
C         0.95773517789827   15.88600110147265   -1.99613127488301
C         4.80323443402285    8.03513985248253    6.59680164902972
C         5.53761093426893    7.30618889021992    5.64043878973242
H         6.50144384538211    7.67256701010071    5.30690744301683
C         5.10501202431616    6.02313026631961    5.21308932900411
H         5.75052167274906    5.43638657519440    4.56788323871334
C         3.90309807548522    5.47376688184276    5.67183793773598
C         3.14837872526981    6.22133262429590    6.62932500798631
H         2.25082115728837    5.77750894899717    7.04748657365029
C         3.60927689574677    7.44726916948349    7.10678647078697
H         3.08652785266648    7.93675343938552    7.92228194946218
C         5.31398484344784    9.33626489441126    7.16727731058728
H         4.49010527244165    9.82147935191204    7.70307104045167
C         6.43239074893279    9.04155911264107    8.17350079340281
H         6.07834016104413    8.37828144316604    8.95922518500787
H         6.76984442982262    9.96728507594014    8.63090791808311
H         7.28011645534231    8.57139871763048    7.68089824552403
C         5.79829330308010   10.29036448265524    6.07329986747812
H         6.73194008910352    9.94769042834349    5.63487799093870
H         5.97091554154929   11.27628500418698    6.49578864251746
H         5.05192856064192   10.37935893135482    5.28172790076030
C         3.42212646752983    4.12955960535599    5.23216521506700
H         4.16309007373879    3.62300021602502    4.61881870799175
H         2.50531016661611    4.24248726787787    4.65004152249001
H         3.19004701469554    3.50825132107754    6.09576415767267
Cl        1.47359243898009    6.80500986497481    3.84328768224143
N         2.55978096367708    9.40490560068658    4.66618052377557
N         3.88377949077631    8.08231361042029    2.91413265545462
N         1.67690328034900   12.80842923124997    1.25059883686594
N         2.76642883906580   11.65223626675684   -0.30824408496760
H         3.15028329505701   11.41111927402454   -1.20640353199322
S         0.86851048362891   15.20820147559033   -0.41057035713781

