50
CSD_code = HUCDOZ | q = 0 | S = 0 | Stoichiometry = C25H17BrClN3NiO2 | MND = 4
Ni       -0.05459170913875   11.68676190049072   11.83201116134019
Br       -3.31644039714479    5.55218373763783    9.44212959141085
Cl        5.66171285917837   16.20167861980619    7.50088300199335
O        -1.28961777788969   10.43314988520391   12.27211511681595
O         1.21447935993897   12.95056845657221   11.29904248147727
N         0.24874274824610   10.95329370605278   10.17857785070642
N         1.14852665507558   11.65578915902895    9.44134597480699
N        -0.28640923130519   12.55237338084602   13.55509192883428
C        -1.70790824455665    9.40948201255332   11.60352878572731
C        -1.25798286420295    9.07680547311333   10.28930322691047
C        -1.74812207337835    7.91420306289719    9.67159791449386
H        -1.38694327298022    7.64130539369682    8.69202262546190
C        -2.66869617687565    7.12441476879345   10.30838965819044
C        -3.14323795286578    7.44407173669510   11.58037296253421
H        -3.87492648232412    6.81161327571027   12.05958567795026
C        -2.66595603146709    8.56207457704298   12.20961849469271
H        -3.01161409726103    8.82823895141521   13.19686011713635
C        -0.29850198393595    9.90226169594025    9.61599588481978
C         0.09708695731320    9.57728867225134    8.22407346471474
C        -0.83795197289870    9.66082495395306    7.19821347325485
H        -1.85224681775176    9.95779634444998    7.42270692653011
C        -0.46627386988708    9.37465668920702    5.89679766279949
H        -1.19663778716256    9.44296461741412    5.10423341939864
C         0.83653372198468    9.00232298574958    5.61189202162068
H         1.12409381937130    8.77733832472302    4.59560359253392
C         1.77040534825521    8.92206976927970    6.63159760709100
H         2.78777881740186    8.63389367728136    6.41170320110186
C         1.40625890842531    9.21280847407629    7.93353715552710
H         2.13244311091661    9.15411716792813    8.72985497508711
C         1.61315074810595   12.68363971567174   10.10082583290906
C         2.61110536409167   13.54585034061193    9.45397735057666
C         3.06231882475407   13.26354894162679    8.16579884115553
H         2.66502959972989   12.40234017555645    7.65249756663232
C         4.00041446576495   14.07842739669328    7.56466676451924
H         4.35538654984973   13.86694693153315    6.56808529949576
C         4.48851816113025   15.18031452187680    8.25313257585021
C         4.05047543047905   15.47427150366692    9.53535785742970
H         4.44145730622147   16.33480898331475   10.05521984862100
C         3.11310446216384   14.65417972100398   10.13168930895567
H         2.75890351291553   14.86029437878288   11.13019396165105
C        -0.36710773471057   11.83450497447449   14.67634978435537
H        -0.32806315961730   10.75854472743389   14.56675236447746
C        -0.50946497943542   12.41288862520716   15.92606533879816
H        -0.56806005926737   11.78889127124372   16.80374595059098
C        -0.57611641325693   13.79315208850457   16.02473101067113
H        -0.68802316976493   14.27514584029437   16.98420813421323
C        -0.49622711598612   14.53859795221205   14.85959205400335
H        -0.54486266298190   15.61571140759514   14.88417609849237
C        -0.35061988925672   13.88204381982026   13.64944645329152
H        -0.27422280401260   14.43994521306549   12.72480164834738

