63
CSD_code = HUCFAN | q = 0 | S = 0 | Stoichiometry = C24H32N2O4Zn | MND = 4
C         5.21317609441973    1.21110749666540    2.80159241611651
C         4.61497571055037    0.12432547257809    2.10530669909026
C         3.36685069198007   -0.35495807624556    2.56382893631731
H         2.93225305924322   -1.16916011892690    2.00641086728123
C         2.74118834338898    0.19438793268976    3.65933873240019
C         3.35487258635053    1.25364673419239    4.35936870672409
H         2.84867907962215    1.66006612103513    5.21950446668882
C         4.55528947006575    1.73900063919596    3.93052825170644
H         5.02141155866269    2.55742117641535    4.46162279532205
C         6.43354417748928    1.79635492128667    2.38473492786978
H         6.78452181374256    2.62367072788879    3.01469828288222
C         8.36037392446388    2.22829220993659    1.14238138323453
H         8.36162626043041    3.14446589701156    1.74975047887086
H         8.40698764801667    2.49620774357070    0.08661013987463
C         9.59050689115844    1.38607179726499    1.48573637099583
H         9.55157332603335    0.47151978085088    0.89223972770429
H         9.55865758468526    1.10869530806724    2.54226397220483
C        10.88359498380295    2.13805405320240    1.18282118352174
H        10.85667557263238    2.49133880759677    0.14966798057332
H        10.95782043536153    3.01650333614234    1.82863864424285
C        12.10860367237665    1.25441703205563    1.38251409528730
H        12.16171923842979    0.90089532940544    2.40978555053776
H        13.02034655658259    1.80559342412699    1.16202437133565
H        12.06087179711174    0.38775737654330    0.72660820982164
C         0.85090940893054   -1.23555227128312    3.48485655252280
H         0.62703299082473   -0.96688522655209    2.44769247604919
H        -0.08052022080215   -1.37050563842300    4.03256136913932
H         1.42077541250699   -2.16975456507795    3.50211203730797
N         7.14177562753456    1.48044466189539    1.35528223484428
O         5.14853523426573   -0.44163780500792    1.07750940939796
O         1.53783758666458   -0.20117773944887    4.14736007534757
Zn        6.62501406498699   -0.00006299772084    0.00001555329769
C         8.03684541228587   -1.21125673900718   -2.80156954484856
C         8.63515197609736   -0.12459618420159   -2.10518739967281
C         9.88331315554129    0.35462328862850   -2.56367651235230
H        10.31797396009839    1.16875087507941   -2.00619943428023
C        10.50892996587685   -0.19469213461801   -3.65922705184283
C         9.89516769907878   -1.25386286955864   -4.35932197033652
H        10.40133684582031   -1.66027232044533   -5.21947669843160
C         8.69470343772321   -1.73913995362582   -3.93052669515097
H         8.22851611268825   -2.55748492642046   -4.46168018338532
C         6.81639586061823   -1.79638821132950   -2.38478757453431
H         6.46536251713960   -2.62364879309621   -3.01479238532777
C         4.88946311050425   -2.22816077648999   -1.14253180249975
H         4.88810978725766   -3.14427903407991   -1.74998438384797
H         4.84282950058684   -2.49616852765304   -0.08678451480219
C         3.65941568657537   -1.38578064921681   -1.48579765032767
H         3.69844322462810   -0.47128400257834   -0.89221894676107
H         3.69128322446652   -1.10831198211656   -2.54230085857646
C         2.36625705511639   -2.13766603090311   -1.18294258241921
H         2.39313105172953   -2.49100883271825   -0.14980833957505
H         2.29196885282886   -3.01607399810472   -1.82880927972390
C         1.14132431312864   -1.25391805041180   -1.38260813647652
H         1.08825484322390   -0.90033695761030   -2.40986165730226
H         0.22953394299500   -1.80503423778953   -1.16216478567439
H         1.18911336133801   -0.38729841639552   -0.72665354283130
C        12.39927945331638    1.23514653834886   -3.48469057973591
H        12.62314239115147    0.96643744050788   -2.44753459299503
H        13.33071631513428    1.37007537429482   -4.03238924432424
H        11.82945421798901    2.16937454369040   -3.50191702957380
N         6.10814050548894   -1.48042572049452   -1.35536717655499
O         8.10165782292398    0.44131166648995   -1.07732651794246
O        11.71230381514153    0.20082608089317   -4.14722982640406

