67
CSD_code = HUCJOF | q = 0 | S = 0 | Stoichiometry = C26H32N2O2S4Zn | MND = 4
C        12.24355229144337    4.75370459677140    8.17220914385752
C         9.27435978921957    3.19208402985256   11.67812918266920
H         8.83426561616651    3.80728826944364   10.88279913429619
C         9.66836371177688   -0.44741041583395   10.84925152731713
C        10.40572263101331   -0.56780039358534    9.64322205735373
C         9.32039637083048    0.80472404009527   11.43466381290652
H         8.67540650572377    0.72656864950330   12.31067011279087
C        10.76290547200310    6.78715145784689    6.93488192649482
H        10.19316360765099    7.57305995966556    6.46385083944274
C        10.83794908778135    4.60537567345642    8.05270246679542
C         9.23202283268399   -1.61729244711461   11.51081428514611
H         8.66069283564777   -1.50859151993081   12.42250699214390
C         7.87055763481497    4.45506863588646   13.30798469417614
H         7.41432529623785    5.02036208152620   12.49282072814787
H         7.13196271696401    4.36410641937396   14.10670667718068
C         9.52448130176972   -2.86512924015909   11.02479824742152
C        12.87417580467934    5.90766176076802    7.65380330744865
H        13.94767838547268    5.99273371056918    7.75104545099587
C        10.51918794681639    3.92420276663163   12.19251550684190
H        11.24317664612117    4.01572190257814   11.37897799352116
H        10.97542961178175    3.33288204000299   12.99074753403332
C        10.12816674551826    5.67032189187562    7.41400481132002
C         8.25289792893922    3.06288303143306   12.80806390063238
H         7.35846043488447    2.54734587836504   12.45090726869157
H         8.67947241567279    2.49508058741963   13.63889613719234
C        10.27387064886745   -3.00681745002639    9.84833213696531
H        10.50541303852039   -3.99573732497707    9.48157120067464
C        12.15255338879085    6.90548240356130    7.05261644765031
C        13.08573672448889    3.77880505843690    8.78055567880956
H        14.15344138817477    3.98734308603905    8.69031533719569
C        10.69527557702267   -1.88652682091935    9.18497042365661
C         9.09940613928102    5.20057950262848   13.81765388839087
H         9.52250082360126    4.66445879059190   14.67048256391072
H         8.81425436800848    6.19744371011699   14.15750266175640
C        13.69054448741030    1.78797471474181    9.93361311646552
H        13.14936082289333    1.15533975406153   10.64755622414705
C        10.14734952678303    5.30816672306827   12.71453077010876
H        11.04020696800558    5.80903768302320   13.09335270428950
H         9.75088165742149    5.90717409976874   11.89203893899287
C        14.87373540977704    2.42312328121936   10.66869895572072
H        14.50554986644053    3.08207196076245   11.45897713023904
H        15.48184600606151    3.01732173900627    9.98490500079164
C        16.25982187060583    0.40005341701138   10.14913685766629
H        16.87070109720468   -0.39468227250984   10.58099136346892
H        16.89221269198019    0.97358940109744    9.46741931164819
C        14.19914251179700    0.88946664663191    8.80127690532039
H        14.75573041627732    1.49533157970869    8.08230250979248
H        13.34510263946359    0.44866121437353    8.28479382459020
C        15.74846696128656    1.31824698259664   11.25624726619805
H        16.59031876789967    1.76270614366822   11.79099808711049
H        15.16634250973564    0.73492857860052   11.97320018948496
C        15.09468109776156   -0.20497235515337    9.37076442645590
H        14.50456285225376   -0.84216550526114   10.03316435508570
H        15.47032496966234   -0.82776256668544    8.55753890365363
N         9.69637531359239    1.96391161602551   11.02277459875651
N        12.70353500351916    2.72798642331038    9.41847642485043
O        10.15962276217478    3.58600122509454    8.47268540645447
O        10.83613951089445    0.40648620684970    8.91952504045539
S         8.99587669888482   -4.34977696250635   11.83561149038461
H         8.32911884520501   -3.74608217532752   12.81671733403491
S        11.65179107922481   -1.90672242893004    7.70810180674569
H        11.71157189426405   -3.23846372676096    7.61552931561054
S        12.91017890934280    8.36965797363620    6.40647720815766
H        14.16106672818565    8.02467289463099    6.70691300261079
S         8.38471739316471    5.49487098250215    7.28227010566985
H         8.43148668788196    4.26478702565636    7.79865662951675
Zn       10.83371032456101    2.16472540418489    9.42698071770843

