71
CSD_code = HUCKAS | q = 0 | S = 0 | Stoichiometry = C24H30N4O12Zn | MND = 6
Zn       -0.00167806847129    0.00142352680729    0.00361788012830
O         1.71486282502283    3.88383679590140    1.32175419819178
O        -0.37160339912428    4.08746972057940    0.58881958969007
O         2.04522703175133    2.38817498895068   -1.07834522454797
O         1.75987306543607    0.78673496260028    0.44160710627943
O         0.15272094167298   -1.19383767292572    1.69043898371736
H        -0.68053548755102   -1.75180965130314    1.60070012673631
H         0.03753907194869   -0.66105356460970    2.48159026531607
O        -1.09294497449795    1.48510402972163    1.06923927386643
H        -0.75826106998897    2.40043268238203    0.96556006888390
H        -1.91876675353988    1.47030642098073    0.57430729272500
N         2.77256761459113    5.57616180859679    0.12726583755790
N         3.95384958526210    3.57873982407356    0.49947620287666
C         3.58227595693994    5.27316005732310   -0.98963423660630
C         3.73922164359178    5.99463149361918   -2.14942709393758
H         3.19340345471362    6.91096495144529   -2.31304339646172
C         4.61993825884570    5.49759405980800   -3.10370722208119
H         4.76643309672298    6.04216860665459   -4.02397249772704
C         5.30129400094849    4.31215154663312   -2.88968617590854
H         5.97620660031946    3.94264168321096   -3.64722307944824
C         5.13016308625506    3.57889616027831   -1.72265673484294
H         5.65186744025543    2.64643726421863   -1.57641981228132
C         4.26120673454387    4.07195809289745   -0.77096525607401
C         2.99532296792167    4.50136075537114    1.09265196904829
C         3.51584128375849    5.02770879959424    2.42658305303722
H         2.81315966888577    5.74535792665386    2.84072342044465
H         4.47329332536335    5.51049880717334    2.25807682778584
H         3.64029536565434    4.20056055086981    3.11869874917951
C         3.68025780909684    2.16785060918103    0.65869286200111
H         3.58844503188882    1.92796134236220    1.71871950568449
H         4.51383953027391    1.60603844553341    0.23463978077214
C         2.37725838541707    1.75217707314862   -0.06852524422061
C         1.34528406636774    5.68827167764011   -0.09466013999193
H         1.08940282894259    5.67742966060938   -1.15604887566674
H         0.93945143360095    6.59767235877173    0.36394286197352
C         0.76740980908492    4.47313453870278    0.61061219663201
O        -1.71395594627450   -3.87741734336118   -1.31894945749657
O         0.37227320565853   -4.08673239657170   -0.58712632759550
O        -2.04794441522822   -2.38650071521129    1.08374751191823
O        -1.76315073823883   -0.78360835222807   -0.43478902582724
O        -0.15604087907083    1.19634412599996   -1.68345705880395
H         0.67753637053612    1.75416758950766   -1.59403538712346
H        -0.04125173075226    0.66331652017754   -2.47452233499365
O         1.09027852281906   -1.48228192026650   -1.06208748632916
H         0.75637585886867   -2.39805485448130   -0.95956225568299
H         1.91611091989801   -1.46743921646665   -0.56717897000112
N        -2.77289477290047   -5.57581911171840   -0.13414541353686
N        -3.95404419244725   -3.57715894551689   -0.49772829314454
C        -3.58123528905279   -5.27681372713339    0.98483372199057
C        -3.73723926415790   -6.00265897343392    2.14200874799435
H        -3.19157279841900   -6.91979594053709    2.30160457934710
C        -4.61683986206802   -5.50896763638793    3.09907396884002
H        -4.76250311009460   -6.05697045560834    4.01743176943957
C        -5.29806381138514   -4.32255155634253    2.89018513706281
H        -5.97204711522963   -3.95563449120774    3.64980545011705
C        -5.12800953493148   -3.58498224909259    1.72570692330852
H        -5.64966052846668   -2.65186457939297    1.58358960044348
C        -4.26014559216243   -4.07465856458913    0.77128836631816
C        -2.99490921150591   -4.49652894343084   -1.09445079416850
C        -3.51325815586200   -5.01617649261264   -2.43181737593444
H        -2.80953077902708   -5.73114892321390   -2.84881860311723
H        -4.47064426479875   -5.50046112934097   -2.26724957220543
H        -3.63724334053196   -4.18545719290136   -3.11973152379579
C        -3.68283927005237   -2.16541846752139   -0.65333088972908
H        -3.59184223987270   -1.92258093458818   -1.71275037244085
H        -4.51715214162904   -1.60609788304098   -0.22742382343392
C        -2.38004696275343   -1.74990549533277    0.07441620411452
C        -1.34559013548775   -5.69105926849758    0.08588631744976
H        -1.08895969983182   -5.68791347254344    1.14712083564469
H        -0.94114954985567   -6.59773829922130   -0.37928447055104
C        -0.76693170888842   -4.47174103682100   -0.61166276114040

