98
CSD_code = HUCLAS | q = 1 | S = 0 | Stoichiometry = C46H46IrN2OP2(1+) | MND = 6
Ir       -7.16159715614778    2.64488116221453   15.61078562645430
P        -6.58570488718508    2.57728588862636   17.88065941073942
P        -7.63997919278428    2.61933765751086   13.30901840275119
O        -5.76490336328196    4.41679958621922   15.45021134537054
N        -5.59125811110386    1.34562511531385   15.17483023230923
N        -7.18239822952363   -0.23216459195682   15.64686251457883
C        -5.93172455671773    0.04366622967020   15.24836922289143
C        -4.98988237657426   -0.95510504288758   14.92283197513364
C        -3.73102248285328   -0.58777553671932   14.52277414420696
C        -3.39610555512677    0.76428170152946   14.45880956295489
C        -4.36218388933320    1.67962480765929   14.80167761002660
C        -8.15425209479897    0.82691920295682   15.87200778505864
C        -7.63739034711422   -1.59184352923070   15.81673099535292
C        -5.79383883489498    5.62977006231143   15.33686883482453
C        -4.54345251855201    6.43921170888483   15.50930125188637
C        -7.03228450147099    6.40542492117192   15.03038955505632
C        -7.85271386956510    2.33049438085696   19.17056304004972
C        -9.20452971014367    2.48060561330989   18.88936589740469
C       -10.13997230105267    2.35420695523424   19.90244759436698
C        -9.73056455032679    2.08489330718783   21.19749516206261
C        -8.38078179251404    1.94798833229761   21.48381111853331
C        -7.44280611855107    2.07525662251776   20.47728312306799
C        -5.40615792778193    1.23290875263943   18.19193565990784
C        -5.85693978349224   -0.01087947296738   18.62404572019162
C        -4.97844392099238   -1.07534185161168   18.71296921333818
C        -3.64905664081124   -0.91350166519483   18.35820020199409
C        -3.19830049352423    0.31707472346103   17.90900429721148
C        -4.07347744928027    1.38298517973670   17.81612618589002
C        -5.83438578590357    4.08301041443086   18.58657887290311
C        -4.69123921284543    4.10553722101477   19.37569988884063
C        -4.24497222529260    5.30339242240635   19.90916878440840
C        -4.93807037879616    6.47814262613559   19.67217818906703
C        -6.09458351492916    6.45522829228107   18.90728973259206
C        -6.54142897011335    5.26355733469004   18.36925936515040
C        -9.35908901802984    2.48521096684003   12.71814696504320
C        -9.59927266667828    2.19190826773847   11.37611039505477
C       -10.89646145203969    2.09473756242078   10.91059337585525
C       -11.96260970483837    2.28746439795960   11.77652931627089
C       -11.72815449397440    2.58105715944243   13.10921153610842
C       -10.42985099368932    2.68090512706073   13.58108807950251
C        -7.02914496118830    4.08773303308363   12.41197895164201
C        -5.67411927784834    4.40936905895061   12.47473151106094
C        -5.18845441809972    5.54068686569767   11.84529550421119
C        -6.05395165354126    6.37914562010947   11.16107846358751
C        -7.40655399733902    6.08341200514761   11.11906457389968
C        -7.89488741229256    4.94856702646478   11.74340851624319
C        -6.90605875198384    1.19400646587647   12.42875874242301
C        -7.57753245833318   -0.02301692661000   12.54292303789664
C        -7.04987921940977   -1.17149026651602   11.98655388876805
C        -5.83886854712906   -1.12488217950552   11.31436558288133
C        -5.17384506935013    0.08119058374146   11.18522107071009
C        -5.70172743690197    1.23573990834128   11.73823023853899
H        -8.37184998718257    3.53870543321462   15.91229837425681
H        -5.26349840243275   -1.99391348609838   14.97777805848073
H        -3.00427181996538   -1.34117603561599   14.26102453118728
H        -2.41430374460542    1.08645122126449   14.15545122267348
H        -4.15128164145173    2.74036986835086   14.79468247167506
H        -8.56301676964732    0.69102530263901   16.88463557357077
H        -8.99428939722097    0.67655797030366   15.17673156990596
H        -8.64559249819212   -1.57395935306883   16.22369549427790
H        -7.65715744490212   -2.12728354300519   14.86347049445202
H        -6.99258751540108   -2.13206884679381   16.51373566663898
H        -4.58114085758109    6.92766815287370   16.48302707796126
H        -3.66049252048450    5.80584289609221   15.47983036934409
H        -4.47599682710535    7.21222313396064   14.74868568649075
H        -7.13726356754065    7.23720497383762   15.72254378866612
H        -6.95488438451700    6.81902767686811   14.02556342348363
H        -7.90642796610137    5.75976205394222   15.07877717654621
H        -9.51184529383434    2.69735088138678   17.87633250843785
H       -11.19014784691833    2.46859738542909   19.68043687969934
H       -10.46058035628848    1.98599676193098   21.98615791772836
H        -8.05967541692743    1.74618584367999   22.49451599127454
H        -6.38962369256036    1.97518754913123   20.70183489457565
H        -6.89519196459965   -0.13944652993494   18.89690363636300
H        -5.33150670924054   -2.03538281751256   19.05959619550274
H        -2.96561272510103   -1.74584571354368   18.42724368906854
H        -2.16449682983969    0.44328584686625   17.62377400350021
H        -3.72722131088235    2.33793012680588   17.44420960107317
H        -4.14920553268798    3.19507069942556   19.58608703325475
H        -3.35478123810858    5.31606796201205   20.51995156633285
H        -4.58485180473564    7.40762240389586   20.09214905599532
H        -6.65052644607755    7.36654277762763   18.74115562185193
H        -7.44919863087854    5.22631617740110   17.78199677957950
H        -8.76745397181782    2.04334023745861   10.70070538958550
H       -11.07761604395340    1.86868280664472    9.87069078853970
H       -12.97445340546637    2.20826152883302   11.40969526108984
H       -12.55744651126690    2.73212376517619   13.78342739053951
H       -10.23363896330000    2.90831193230271   14.61903136753673
H        -4.99649364855904    3.77563846421334   13.02795205348407
H        -4.13366811499234    5.77005902372171   11.88874475073893
H        -5.67559100038806    7.26120201004387   10.66746311548841
H        -8.08642891329142    6.73906827713427   10.59650059037944
H        -8.95221300459293    4.73316256295666   11.70854327276758
H        -8.52954911366587   -0.05986808267325   13.05388779553630
H        -7.58570659541878   -2.10561104973929   12.07058054200735
H        -5.42260473965588   -2.02238875126926   10.88352596694399
H        -4.23877047416529    0.12862291603196   10.64754801378824
H        -5.17628008037856    2.16873437799282   11.60508708126167

