157
CSD_code = HUCNAU | q = 0 | S = 0 | Stoichiometry = C112H38N6Zn | MND = 5
Zn        3.50608136654681    0.96391468354728    7.13880347374929
N         1.47315379682583    0.90625875432672    6.91541613620533
N         3.70965204195671   -0.06287879981494    5.38527800421287
N         5.50143454513926    1.36503430434088    7.11433538433884
N         3.26603268678790    2.34892366283901    8.62230059761495
N         3.45086999033613   -0.78653093450353    8.47012063436921
N         2.15148370187131   -5.21584950845713   10.52387141499494
C         0.54505938624252    1.50003654442574    7.70907935329549
C        -0.77478866096685    1.15586828027167    7.25496762762716
H        -1.69306573120919    1.50251734597114    7.68575384409069
C        -0.62000483317703    0.34000225674049    6.18625041663898
H        -1.38446246210633   -0.09699519380954    5.57297567075603
C         0.79452633253334    0.17696333011584    5.99422744159814
C         1.35478024003005   -0.61395360877543    4.99001201987651
C         0.42427109996328   -1.43105664674154    4.18156551185586
C        -0.32857880342574   -2.42518857672443    4.80017907931745
H        -0.21019071205719   -2.58928388137009    5.86209280748462
C        -1.21391289717693   -3.19569607596364    4.07014920873312
H        -1.79468635836813   -3.96089851521173    4.56578827571632
C        -1.35655790594188   -2.98506356699209    2.70871135984200
H        -2.04883323259280   -3.58504056390642    2.13647858918651
C        -0.60882756446456   -2.00090803014995    2.08362115831934
H        -0.71887954029005   -1.83217607633537    1.02212142011762
C         0.27682527865959   -1.22815505931546    2.81346592537822
H         0.85086863712576   -0.45185755799172    2.32856954804878
C         2.71918160017442   -0.70923340499049    4.71706070372134
C         3.28507791021360   -1.54696986573624    3.69406627400435
H         2.72710534561201   -2.18393164241724    3.03538981296506
C         4.62647440046586   -1.37695157356155    3.75075992100767
H         5.37783922256114   -1.84815397448254    3.14723295756352
C         4.88050860164983   -0.44213654639814    4.81403010653279
C         6.15514783607720   -0.03803633839733    5.21197365408028
C         7.30643106897237   -0.54598317423392    4.43444485021892
C         7.46489816874318   -0.19258457485812    3.09776963097739
H         6.74039951753877    0.46286288882584    2.63642730557128
C         8.54334452422576   -0.66286649890072    2.37092993067803
H         8.65897070766648   -0.37712536288629    1.33539908350095
C         9.47421710061715   -1.49704536874525    2.96738157108033
H        10.31545633725537   -1.86523471873565    2.39871896740581
C         9.32213265379610   -1.85701204743565    4.29597847157617
H        10.04433467208227   -2.50981654153583    4.76496893157878
C         8.24733221539643   -1.38317711019988    5.02622144887883
H         8.12420707620045   -1.66668306887015    6.06182208528109
C         6.42230748084329    0.81279127486858    6.28446154130073
C         7.74022441546007    1.26027604761682    6.64826368184911
H         8.64824852583626    0.98740350837271    6.14643369470366
C         7.59164317444771    2.08325161258367    7.71145934822854
H         8.35659420868558    2.59709087620380    8.26067837481660
C         6.18151309812167    2.15109924490182    7.98710734423909
C         5.62022965900366    2.91857870464233    9.00760691609033
C         6.53671226192630    3.70511606620438    9.86289948190023
C         7.27384040174759    4.75862147146504    9.33131016558131
H         7.16555182667838    5.00248340385217    8.28438138772814
C         8.12569630878156    5.49415985687918   10.13510541907324
H         8.68970618922623    6.31285276242770    9.71215395775237
C         8.25603105158645    5.18476274268072   11.47877083654608
H         8.92284381366776    5.75868360172946   12.10530635545831
C         7.52692188890639    4.13728448989701   12.01596760038310
H         7.62562303019785    3.89118035106220   13.06354005336462
C         6.67084114303094    3.40384482703705   11.21469219226043
H         6.10406159312363    2.58368507205918   11.63221497874940
C         4.25472100220892    3.01050729275247    9.27725306360342
C         3.68845229606101    3.85359336392457   10.29516525700668
H         4.24454317789958    4.50890463821142   10.93718928991218
C         2.34874607606856    3.66754515582695   10.25216636115129
H         1.59744882209154    4.14664518014132   10.84962645126770
C         2.09561056516010    2.71742533180824    9.20184940326025
C         0.81839578333886    2.30207049159253    8.81907245445645
C        -0.31026165123343    2.72970670800359    9.67203300021832
C        -0.33186231711749    2.35014610555461   11.01182399168968
H         0.47756587621458    1.74864583499497   11.40141819899393
C        -1.38222347111402    2.71785436476720   11.83297291239981
H        -1.38320842441340    2.41921346847140   12.87166737973560
C        -2.42935951090101    3.46983894683371   11.32716574056335
H        -3.25337294160297    3.75167513335929   11.96603567725181
C        -2.41098589463136    3.86347215832490    9.99980765358646
H        -3.21897401692990    4.46116681929659    9.60304701925788
C        -1.35768033772409    3.50227395961574    9.17900525350634
H        -1.33261807076331    3.83475229093697    8.15129228746975
C         3.35519536413300   -0.60791717227192    9.78044547757897
H         3.65136082222315    0.36322259278539   10.14798711520607
C         2.89974742196603   -1.58521456455887   10.64805381594594
H         2.82620272760723   -1.38320489499719   11.70629357175491
C         2.52141524287210   -2.81827685978753   10.13330593335161
C         2.65359855622097   -3.01429078096633    8.76242045462513
H         2.38285315444691   -3.96362037368345    8.32882272796669
C         3.11986821586856   -1.97529545932781    7.97961966926318
H         3.22477738585143   -2.09366879560070    6.91153152844054
C         1.90217299303540   -3.87144138341267   11.00116285722029
H         2.23833319369815   -3.74233713038999   12.04950223455518
C         1.15212249532336   -6.03986579439978   11.16434349039081
H         1.39071533112811   -6.22440253654797   12.22784128034088
H         1.07033653378084   -7.00121175355045   10.65423925639368
C         3.50402818710057   -5.67021474135260   10.74357258322744
H         4.19326927605011   -5.00314640440461   10.22835830899578
H         3.60927479901578   -6.67185135354401   10.33051605832953
H         3.76957639061717   -5.69879297911681   11.81232991502940
C        -0.15497108300945   -5.22509289723783   11.06825621754572
C        -1.08732661753502   -5.48956150180713   12.23280921762165
C        -1.29741294319847   -4.61412103929291   13.26640868890918
C        -0.82590067880279   -3.23432443437877   13.16621177176882
C        -0.17208901667310   -2.81088267338969   12.03786161129771
C         0.34800841906719   -3.73844793924567   10.96138658752863
C        -0.12330675800748   -3.00189080300713    9.72150925597992
C        -0.72218967821855   -3.60052291010388    8.64636091532766
C        -1.19223198723479   -4.97927930569726    8.74530060210327
C        -1.03139951484919   -5.67415704403620    9.91483847864950
C        -2.55742376599350   -4.59333423089595   13.95660030950883
C        -2.87265342519397   -3.22752769943296   14.28556204158798
C        -1.80567576062326   -2.39359394524594   13.79646479834100
C        -2.14119632833100   -6.36454312187875   11.83331151766098
C        -3.36105165066096   -6.37562693964315   12.50276433500859
C        -3.57519522666583   -5.46768620630754   13.59052990985227
C        -4.93799179173052   -5.00675081595658   13.52756930468340
C        -5.23776794954643   -3.68769096763179   13.84115808387411
C        -4.18567057400140   -2.78250329427577   14.23333377312974
C        -4.59234606595593   -6.48898301172267   11.76068802738260
C        -5.56814216761041   -5.63857559707142   12.39421039373897
C        -3.45778352499729   -0.67573981605469   13.21106276288855
C        -2.09502413943886   -1.13745736740913   13.27385674540074
C        -2.10608399442517   -6.47891738243919   10.39954342706652
C        -3.29458323154023   -6.60243256274589    9.68557734743130
C        -3.45583504067864   -5.88235689634566    8.45734371341474
C        -2.41889042290035   -5.07434840153049    8.00314864622194
C        -4.80661510235282   -0.04855378623959   11.26354026511219
C        -4.77328922148185   -0.16472054650244    9.82633413886399
C        -5.81792535071936   -1.07440638039015    9.42904517956385
C        -5.87182967588470   -0.88669122109686   11.75256364008533
C        -1.66789307369722   -2.87433161933566    7.84413240747638
C        -1.97650739419118   -1.55328988905307    8.14541580694074
C        -3.33743375472355   -1.09329108116848    8.06940036540305
C        -4.34505476687122   -1.96859484197031    7.68750862505008
C        -4.02624113338819   -3.33732645057653    7.36360748309771
C        -2.71374499059179   -3.78002340471041    7.44460937724998
C        -4.48453163430571   -1.48422225368543   13.68037583495635
C        -5.09834051578350   -4.17171582987823    7.84800436653669
C        -6.07304370569654   -3.32054003097828    8.47830324114649
C        -5.60739818703721   -1.95855425295655    8.37883091052865
C        -6.73192509234005   -3.74748202908465    9.62374212232749
C        -6.94612716344390   -2.83035209212156   10.71462158166341
C        -4.81835510108325   -5.42219994219259    8.38285968909245
C        -5.50209195672836   -5.86596958701928    9.57275227024872
C        -3.62151138517580    0.05552191513413   11.97883242852635
C        -2.35921817856464    0.04510799069129   11.28456460727412
C        -1.42083159620994   -0.69843662973478   12.08831997795397
C        -0.48959230589610   -1.53505697848214   11.48114978299046
C        -6.49782725171910   -1.51989811668466   10.61908300453855
C        -6.44090584539130   -5.04385116440134   10.18155720442252
C        -6.47443649120259   -4.92779530976064   11.61876011319944
C        -4.55924949933276   -6.59982253576269   10.37873538923411
C        -6.78591970910902   -3.55975711890311   11.94736224976186
C        -6.17948729353613   -2.95212475724907   13.03888107087689
C        -5.71382390584704   -1.58992354541163   12.93967533438291
C        -3.55571579582664   -0.17463575942383    9.15995043906663
C        -2.32719344329412   -0.07013026780973    9.90431940816298
C        -1.35513367610168   -0.92744789947393    9.27427536794483
C        -0.45615536826893   -1.65231619578413   10.04771621866336

