44
CSD_code = HUCPUQ | q = 0 | S = 0 | Stoichiometry = C20H19ClNOPW | MND = 9
W         7.20311694643353    7.25702256337424    2.68423316716380
Cl        7.57937192109503    9.57455665741250    2.15280960544381
P         6.36150533600958    8.09205939654257    4.84816107245355
N         5.65049653019789    7.27686985513586    1.83133224727458
O         4.66707440422613    7.14272959743756    1.17659023414340
C         6.15947896649252    6.38310187253150    4.34961796966976
C         5.54347048189714    5.35763958051013    4.91802674843834
H         5.52900350513917    4.39793556724430    4.40559544978230
C         4.82344078219374    5.37420103263363    6.23113962080879
H         5.19199299181622    4.57847154596086    6.87850226542080
H         3.75847538167579    5.20802616390600    6.07068370186366
H         4.95965003943751    6.33283102843398    6.72656947999676
C         7.28656796171922    8.16094946226610    6.40995910805690
C         4.73647170763777    8.85121394225398    5.12681636735208
C         7.99385811746730    7.05335203505441    6.86684948555577
H         7.94252176610821    6.12442902487331    6.31379980100234
C         8.74249921148898    7.14270743901954    8.02589576026183
H         9.28529646099861    6.27977040220500    8.38363563128035
C         8.79608501066777    8.33556498517300    8.72945984682969
H         9.37985891166173    8.40154428426391    9.63542150107961
C         8.10667874911517    9.44563561886112    8.26706961873514
H         8.15704140016583   10.37783333271698    8.81014859797150
C         7.36013468423519    9.36492541877544    7.10627790825033
H         6.83117809874551   10.22976519057768    6.72945583031879
C         4.15498641865490    8.99846326776982    6.38181802240226
H         4.69010475915230    8.69465559238661    7.27126837935736
C         2.88867448698024    9.54441838361850    6.48618901017586
H         2.43430472278517    9.65827693236885    7.45969965400528
C         2.20258833470637    9.94187695152509    5.34946692484584
H         1.21323314887033   10.36501267463322    5.43995035895782
C         2.78690295383716    9.80575005681671    4.10011585471186
H         2.25696745181236   10.12434040231129    3.21540078923530
C         4.05549809096724    9.26799324189327    3.98622254230542
H         4.53899957845289    9.17450465401962    3.01932125331047
C         8.71099191782866    6.56443058294948    1.07268871013894
H         8.73033525262964    6.79587554487030    0.01427556189354
C         8.13246658870071    5.40290288658895    1.66214560546962
H         7.62382964804741    4.60858214244449    1.13043607035754
C         8.53216624168729    5.36615711616145    3.02288970298610
H         8.36814282156982    4.53882835123375    3.70123554658316
C         9.36042238443551    6.49392261550537    3.27648277508671
H         9.91959476999126    6.67537645192859    4.18588303027311
C         9.48456039633172    7.21237610263709    2.07451657341299
H        10.12276066593314    8.07232005117450    1.91234261533795

