51
CSD_code = HUCQAX | q = 0 | S = 0 | Stoichiometry = C25H21ClNOPW | MND = 9
W         3.59855088072804    9.18256905910586    2.37292190374506
P         3.43664502466126    6.90827210387481    3.34569532212609
C         4.85408537129891    5.78672639588295    3.14928500063061
C         5.36730114089927    5.02987966075384    4.19733489436834
H         4.87917451178831    5.04616181862142    5.16152036234885
C         6.49669206376507    4.25853664542846    3.99331960821381
H         6.89792490516806    3.66875743476948    4.80448012428023
C         7.11615781467647    4.24060446507530    2.75293886887792
H         7.99671018090576    3.63437287496332    2.60059089267964
C         6.60621822989383    4.99445871528374    1.70801505883684
H         7.08688678332116    4.97390822208714    0.74086608014243
C         5.47605442912885    5.76753116224330    1.90441871317147
H         5.05074810159897    6.35056360484437    1.09439409740004
C         2.22319193538365    6.10394108963563    4.42880852427350
C         2.09536882857872    4.72062890133979    4.48994335158778
H         2.74892643325841    4.09086803022096    3.90229885568346
C         1.12604622130229    4.15985696975829    5.30263635893842
H         1.02842658224148    3.08546976831054    5.35663549082741
C         0.27729854977069    4.97156489277405    6.03730603047781
H        -0.47860501401829    4.52831570503662    6.66823302656717
C         0.38770812006428    6.35137076014857    5.95330598635011
H        -0.28415967714356    6.98337170341629    6.51421240692451
C         1.35378405516262    6.92133755611822    5.14644907671839
H         1.44363677322061    7.99706288896400    5.06069882279829
Cl        2.57487071920882    8.18105718920226    0.44436706362963
N         2.01881435564040    9.70232253863776    2.98705640981293
O         1.02994825952532   10.21437834068741    3.41140736329351
C         4.06624459881456    8.31701602471941    4.26508731999132
C         4.51693977542749    8.37204588388622    5.52007134494440
H         4.65029701514794    7.47684989861737    6.12452210261637
C         4.86268864430328    9.62471943788932    6.18332749986142
C         4.26528334683354   10.82353405821641    5.78667477284614
H         3.52099251930034   10.79856087449905    4.99925079473068
C         4.59374959996636   12.01044352437838    6.41114651202827
H         4.11972692628793   12.93044684899053    6.10160711104200
C         5.52099340920341   12.02331616815435    7.44209851446799
H         5.77756276857628   12.95225193943235    7.92923557656938
C         6.10712819278554   10.83780531044919    7.85458920973708
H         6.82196453287293   10.84259947741761    8.66468588651358
C         5.77661868627999    9.64653512325879    7.23644260966074
H         6.23580459619233    8.72293009164258    7.56037790058357
C         5.60725360780056   10.33686970502517    2.80942398483580
H         6.14224234251891   10.43630785658284    3.74476187156128
C         4.66186136695861   11.26047608891150    2.29985002569137
H         4.35861805456884   12.18364663756583    2.77721319099478
C         4.34515055907233   10.86834119922196    0.96878465552005
H         3.77529893871682   11.45062299792426    0.25375607303143
C         5.13943051088193    9.72882436293167    0.65814390578863
H         5.19439471571410    9.25710209517809   -0.31441979764299
C         5.89480811087423    9.38502849464444    1.78857584603615
H         6.67654160097149    8.63673740325901    1.83525339388083

