51
CSD_code = HUCSIH | q = 0 | S = 0 | Stoichiometry = C14H27B8BrRu | MND = 11
Ru        0.13638356999462    3.07127027941387    3.92111331505165
C         0.67785577730354    0.89790986149197    4.76361695351994
C        -0.36423677342500    0.79200510974608    3.82461500421637
C        -0.22922695653740    1.38468689268369    2.52199871533707
C         1.02552105383043    1.93374468162997    2.14476417648073
C         2.01866884292022    2.17646821660773    3.12915465478816
C         1.78296262609343    1.76523038766338    4.48546060834928
C         0.63406564675650    0.09851979611396    6.03642719725049
H         1.63644068970789   -0.06890434914717    6.41972344729860
H         0.17909276830189   -0.87266543612702    5.85532804696338
H         0.04839300621845    0.59789753553032    6.80930255673745
C        -1.55821044890217   -0.05397607473634    4.18556051603495
H        -1.29138458986440   -1.11083486903959    4.12347524979802
H        -2.40182558659493    0.10406410650155    3.52122286522907
H        -1.88374064185868    0.15320087813076    5.20426634008606
C        -1.31389490965850    1.24303117551235    1.48230650648259
H        -1.28615641727911    2.07569095886672    0.78235903687849
H        -2.30548943017733    1.23320625284834    1.92840525225972
H        -1.19540873438895    0.31288625204591    0.92182192720249
C         1.32446844362832    2.25308637248926    0.70247235963418
H         1.16945725454263    3.31309653243407    0.49666617066414
H         0.69650153365965    1.67504002088402    0.03020960168104
H         2.36039057923900    2.01500107438043    0.47153503218888
C         3.36165548452121    2.70289917852222    2.69511063617075
H         3.90792873998133    1.91593881628786    2.16985158961856
H         3.96511474616718    3.01765899989353    3.53867287747472
H         3.25233022459035    3.55237692490830    2.02467608364774
C         2.81585383032461    2.01127203765228    5.55442296758959
H         2.35716250188367    1.98290266254293    6.53928031421238
H         3.26071107954427    2.99613555451440    5.43677998165419
H         3.60861442761465    1.26155522225761    5.51465236671486
C        -1.90915794543504    3.56951153205776    4.07466403561142
H        -2.63284465411316    2.77013239570265    3.89363923966479
B         0.99911724184069    4.97075418138102    3.99766994985329
H         2.13378305607969    5.10193931390455    3.70506790980185
C        -1.92133617935747    4.74665985228479    3.16599032335409
H        -2.59075111323338    4.71451165816168    2.31231790815718
B        -1.27272268064755    3.93647479466335    5.51030421645859
Br       -1.78150416944254    2.73569182955028    6.97703341395793
B         0.27507099404747    4.79825153931127    5.54527131544062
H         0.95664258591937    4.68640862292501    6.50557979321131
B        -0.32372394623840    5.19352201308601    2.93893000504208
H        -0.10119080656978    5.48503524844292    1.81239314916720
B        -2.55960038093198    5.00436231241350    4.74368873835864
H        -3.72114609737418    4.99308236793189    4.90862256963908
B         0.02797770632449    6.27526685973363    4.55048959203607
H         0.57128206641422    7.31408784076610    4.64658822233704
B        -1.57953429024351    6.20765700024003    3.89728898930980
H        -2.08303906754042    7.15789081150331    3.42292241228920
B        -1.26330672536625    5.74290236986947    5.63047103952621
H        -1.51611393227074    6.36366240357438    6.59771482556279

