116
CSD_code = HUCWAF | q = 0 | S = 0 | Stoichiometry = C51H58Cl2N4Ru | MND = 5
Ru        1.60281143731313    1.93147903056211   18.81704846499178
Cl        0.13543942638022    3.17452239239508   17.46394241059482
Cl        3.25944713508922    0.52239983792565   19.69557446536338
N         2.67831526233172    4.84714527659135   19.18502122887015
N         4.15576643766696    3.51782943677102   18.37488377847310
N         0.00781158543678   -0.62497532128799   19.62387009947298
N        -0.07620664921046   -0.26252076470025   17.51097493457756
C         2.87792811967962    3.56278023783898   18.81108858988881
C         3.81477860351437    5.58442640648341   18.98588552487373
H         3.87701085637658    6.62746740236912   19.21461437679542
C         4.74651999551894    4.75141133856198   18.47533288360405
H         5.75577673951320    4.92633461994798   18.16183946228607
C         4.82329285449792    2.43171874894599   17.74624318439768
C         4.45421874198871    2.09816329699476   16.44185155225345
C         5.16739321778310    1.10755999551932   15.78365309739374
H         4.89597304847465    0.85513541967111   14.76840334000195
C         6.22047172883726    0.44738951053216   16.39739552637728
C         6.56665858176724    0.80361463267375   17.69311007279883
H         7.38395878667669    0.29250262855260   18.18101854967928
C         5.89169360273400    1.79876249508168   18.38274245350777
C         3.31580432039878    2.80566526452101   15.77236404414783
H         2.36503323468129    2.56265364362871   16.26694195168653
H         3.22972752035707    2.50656251338918   14.73146014905196
H         3.44367874569380    3.88819244238100   15.81796314814057
C         6.96843938244220   -0.64078851406266   15.68859539304521
H         8.04231733164642   -0.51012470908500   15.80775246031840
H         6.73174096322202   -0.65188486049421   14.62731759410337
H         6.70261449084033   -1.60991886517952   16.11108413301490
C         6.26946485360359    2.12611158447186   19.79337118089120
H         5.60756217720155    1.57308765252355   20.46080700500593
H         6.16391733887711    3.18672919255077   20.01142089280195
H         7.29293587318867    1.82105015568845   19.99626736124372
C         1.43531940299674    5.43336040187640   19.63972596303098
H         0.72778541495792    4.60674471087060   19.76711136753179
C         0.85940229499840    6.38355141339679   18.58711277315615
H         0.74498467450897    5.84451602434523   17.64523557234973
H         1.53569774557686    7.22762384600844   18.42917726396796
C        -0.50124624636781    6.88471154948376   19.05979190617081
H        -0.91788343168069    7.57030864153910   18.31969848730963
H        -1.17560775033826    6.03096736525136   19.14392931378532
C        -0.38592995367262    7.58222520938592   20.41190474283036
H         0.23698054558235    8.47449538219058   20.30784421928545
H        -1.37351072666812    7.90308873003015   20.74852654457067
C         0.23458570848778    6.64945449688778   21.44799056242521
H         0.34056428738597    7.16688189879355   22.40350977961906
H        -0.41965769139241    5.78987176558077   21.60447288583296
C         1.59972872626029    6.16038667563970   20.97377667508601
H         2.03683057619104    5.48646605420197   21.71193897706946
H         2.26690787960957    7.01755780410412   20.85564230851840
C         0.78736936473226    2.45817329321539   20.47254602132754
C         1.43115841866010    2.82260154351080   21.72646949949544
C         2.76276898928147    2.86350005684539   22.09932163171431
H         3.53412666826238    2.57454148913220   21.40217354579912
C         3.08556059046410    3.27552390514124   23.38742562566084
H         4.12128167466444    3.30788620052870   23.69347212640087
C         2.09685668502297    3.66142659897247   24.27746905120030
H         2.37063929386969    3.99891574199353   25.26684806129644
C         0.75324661678572    3.62362437583056   23.91691701048214
H        -0.00376791305486    3.94656363826695   24.61631741071730
C         0.41755343259277    3.18084416107096   22.65306999999435
C        -0.86548083289694    3.04624058614152   21.96994727332510
C        -0.61376703271248    2.61305629812083   20.69168264500613
H        -1.36648096542963    2.41787611525688   19.94437508264113
C        -2.17200425077448    3.32797137473667   22.53495548218370
C        -3.15081829019549    3.94933293520216   21.75558889156829
H        -2.91396335751671    4.23197753849620   20.74028818006646
C        -4.39873303950931    4.22237352087753   22.27934371387729
H        -5.14281314553506    4.71225049791604   21.66786151972240
C        -4.69845073041965    3.87212367016285   23.58633852233196
H        -5.67472281630209    4.08682276996497   23.99557974760630
C        -3.74152161921221    3.24040060951721   24.36389728461491
H        -3.97544064607476    2.95365496443774   25.37933067629188
C        -2.48877843755368    2.97180780561909   23.84711912686072
H        -1.75747564841270    2.45240239368048   24.44783794251832
C         0.42276499244439    0.23212880726056   18.66349878197454
C        -0.79407954852915   -1.40693921827188   17.74379295891143
H        -1.25742782412931   -1.95917228191318   16.95146105011290
C        -0.74021009479275   -1.63159096107894   19.07408043975741
H        -1.16942818092308   -2.41966421243250   19.65637780094956
C         0.17845083304010    0.19437017845977   16.18913802160164
C         1.41359773343983   -0.10773840366355   15.61422622210121
C         1.63519787573090    0.26028102602850   14.29523030349739
H         2.58371822647301    0.01844247680443   13.83649795059315
C         0.66398842132150    0.91825896907978   13.55638914460190
C        -0.56034581229712    1.18965516774057   14.15171128557092
H        -1.32445263392340    1.69671687277128   13.58062463148173
C        -0.83137102306836    0.82449387612720   15.46069494281754
C         2.46072794745911   -0.83034977630831   16.40584532406375
H         2.06491377852484   -1.76036783591792   16.81665618209528
H         2.80495461589223   -0.21824844032655   17.24763359027645
H         3.32445465761693   -1.06104904220616   15.78872793882342
C         0.92532639445294    1.34059588737446   12.14231805273064
H         1.08489589705992    2.41833725681563   12.10064313527379
H         0.07354625270338    1.10654472163726   11.50677028461510
H         1.80829558133695    0.84731065706618   11.74272408628225
C        -2.15496256281596    1.13026170966674   16.08673170833946
H        -2.57195566910388    0.25982754453057   16.59092877178869
H        -2.86100036198894    1.47811124985680   15.33771169011769
H        -2.01683009175854    1.91911734121640   16.82612541230381
C         0.35158195909331   -0.58385776399886   21.02969020563925
H         0.92611270194872    0.33663177907594   21.18556868199783
C        -0.89146514542906   -0.55012412124057   21.91807242661599
H        -1.53045348928404    0.28541288592174   21.62676607668372
H        -1.46245982321801   -1.47451192858856   21.80309546285917
C        -0.46241292802461   -0.39945143471286   23.37420866797222
H        -1.34545013192583   -0.37294168469413   24.01606229694870
H         0.07218140360096    0.54531700197168   23.49226192274669
C         0.45017025313066   -1.55182356793865   23.78311730711897
H         0.76981194078390   -1.42130373844762   24.81863959661072
H        -0.10250494260030   -2.49292563542733   23.72079564361042
C         1.67049939825537   -1.61750658734372   22.86971603839615
H         2.30575761733897   -2.45824607550617   23.15423487531888
H         2.25551068607220   -0.70188227406553   22.97500276548723
C         1.24822508971976   -1.76348207007365   21.41147224837422
H         0.71431021616494   -2.70669544445303   21.27011083927415
H         2.13092558133196   -1.76152908553192   20.76994050951211

