103
CSD_code = HUDPAZ | q = 0 | S = 0 | Stoichiometry = C47H43BN2O5P2RuS2 | MND = 6
B        -1.24825806392199    9.71544723162550    7.28414803586452
N        -0.41134649206266    9.64271919895384    8.79913191578170
N         4.76706521609074    5.22142952043291    4.32039962638979
O        -1.68949362185351   11.12701357157344    7.35528353643333
O        -2.33873501002028    8.77395268184492    7.55039646407493
O        -1.27167009954829   13.03431888564443    8.42961452145714
O        -3.30007604903838    7.65700491779616    9.22391395822373
O         0.75814572776102    9.95782663916912    1.75210979660797
P         0.29126724630223    6.59227465855818    3.47228543583213
P         3.38563742517332    9.79719805185171    4.64745258982847
Ru        1.80919759540312    8.25774513521214    3.97196752398495
S         3.71029754163122    7.13627147806566    2.81949682358937
S         2.75848629127348    6.51003303137393    5.48338712976567
C         0.45981315324054    8.97881534982590    5.27483460172501
C        -0.31706999882190    9.33825394564176    6.13410444988090
C        -1.08272671634616   11.86550460986854    8.23172867636546
C        -2.49522824896530    8.43545035006856    8.79431526622928
C        -0.03757730097285   11.03347438929787    9.01851619586418
C        -1.47058000700112    9.17697069932391    9.69333908027375
C         0.72931629367031    8.73264397845557    8.79613392441085
C         1.18350733856098    9.33057050638333    2.61841606894579
C         3.84497092851141    6.18355745628118    4.21724950112364
C         5.66123413229303    4.89267917283073    3.24060650085909
C         4.92783103974289    4.43055386953953    5.51285551468895
C         1.09048673998385    5.16715919715883    2.67553211440043
C         1.36064370892234    3.99796580733160    3.37825950141401
C         2.12271458425765    3.00186379539396    2.79241649274178
C         2.62224496521119    3.16770820064022    1.51149009247929
C         2.36723902731141    4.33766287744564    0.81213639223142
C         1.61681390756351    5.33999752069413    1.39542693849275
C        -1.03505717929230    7.08915060878774    2.33158212751176
C        -1.71763817044161    8.25025856941997    2.68924639241166
C        -2.76802779554002    8.70140343098276    1.91357066096270
C        -3.14342292725024    7.99933598983515    0.77862761483729
C        -2.47421251319351    6.83914618159614    0.42832279405203
C        -1.42423362361457    6.37708613932315    1.20340010585855
C        -0.72102842627835    5.79442212744321    4.76257350077065
C        -0.50996803466375    6.02909145612550    6.11426435343583
C        -1.32172432375423    5.42294869892021    7.05674584055876
C        -2.34551314629413    4.58252852287316    6.65711712863553
C        -2.55135608137949    4.33600743190519    5.30867428862259
C        -1.74465299313125    4.93785991974614    4.36285507187547
C         2.80922256326926   11.16324917938073    5.70503525040128
C         3.45752331917283   11.62434113945904    6.84441315801967
C         2.94265945002236   12.70902325008050    7.53662939497053
C         1.79167794526022   13.34108231852208    7.09417731618860
C         1.14901654537516   12.88853044506669    5.95159372131629
C         1.65437837127587   11.80441364627598    5.26067601112369
C         4.78625529560176    9.05779065503523    5.54530767030627
C         4.58574717471086    8.59490418091323    6.84511078558694
C         5.57967510286375    7.88852006321700    7.49482559087556
C         6.77274524052410    7.61471787427430    6.84450586298705
C         6.96863070061312    8.05060106512843    5.54468556432296
C         5.97997759175874    8.76633793416842    4.89259393792887
C         4.26040353300960   10.76947311140897    3.37550913776632
C         4.12219695414682   10.47807948719092    2.02490989190033
C         4.80274148457091   11.22606798786834    1.07956857963692
C         5.62307557753147   12.26719217672454    1.47768327725333
C         5.76701385122857   12.55988927633598    2.82545935428850
C         5.08989691534264   11.81647612325663    3.77214001354480
H         0.93645995792812   11.23469199076628    8.56532590515494
H        -0.01069456656583   11.31525116463945   10.07269126013797
H        -2.00060455980605   10.02123617964781   10.14112656990443
H        -1.09902254257705    8.52914592729079   10.48848627468374
H         1.27994992398973    8.79743249247042    9.73702683840722
H         1.38057167714935    8.98640577926211    7.95968901848262
H         0.37805325432832    7.71304099155827    8.64795996586037
H         5.60733536065252    3.82133696871585    3.03647700868322
H         5.37608329878621    5.44202784581712    2.34629676054988
H         6.68815895489269    5.15361132422630    3.50951870216709
H         5.97189932269760    4.46055010341620    5.83146655304048
H         4.64450722029636    3.39299954197986    5.31748679176507
H         4.29914328910298    4.82888868732816    6.30576857694522
H         0.98107751910941    3.87701413637362    4.38443235791105
H         2.33097918843206    2.09418408689952    3.34154944336207
H         3.21921086163363    2.38889597482942    1.05897778594823
H         2.76945630991192    4.47382249205464   -0.18120807710601
H         1.44441006843218    6.27499793892999    0.87466871903386
H        -1.41378598248176    8.78689566519091    3.58223628951734
H        -3.29302558955997    9.60234657108800    2.19298768853258
H        -3.95981704968699    8.35505544661708    0.16740621310408
H        -2.77096050145649    6.28734893023279   -0.45222280550536
H        -0.91141396195877    5.46600436174748    0.92548994535628
H         0.28547816398781    6.69417803959545    6.41776701097008
H        -1.16496353962878    5.60801756861742    8.10963505007767
H        -2.98581930680181    4.12436956057263    7.39561949482603
H        -3.34792459637744    3.67741264915782    4.99423154002864
H        -1.90810510502149    4.75000917602777    3.31016661235451
H         4.36238939470101   11.14453087466567    7.19315695130364
H         3.44868988692329   13.06501990658959    8.42314113383923
H         1.38701449190713   14.17797846245315    7.64221826490586
H         0.25088714414119   13.37858590908464    5.61018050693823
H         1.15850832991207   11.43396782950439    4.37107815820218
H         3.63552035502177    8.77802483130587    7.33139700543811
H         5.41855413434164    7.53479110739121    8.50294763283608
H         7.54571241955367    7.05342746216209    7.34942553612729
H         7.89348488115552    7.82746244595795    5.03189118856785
H         6.12704847211416    9.09069709808046    3.87127784221028
H         3.49008139673117    9.65640807674088    1.71321463300355
H         4.69056337157180   10.99407780242431    0.03081291087087
H         6.15217323556485   12.85187910896311    0.73964757758945
H         6.40847880098722   13.37124658296540    3.13746666026820
H         5.20040295975107   12.04423518870997    4.82353343629167

