44
CSD_code = HUDTUV | q = 0 | S = 0 | Stoichiometry = C19H24Zr | MND = 12
Zr        0.41337855911452    8.54271129512833    2.85157914963778
C         0.70077619620398    6.44148511123649    2.21124242210515
H         1.54246296953606    5.89962707262863    2.68434451758964
H         0.82929008299890    6.33913507344063    1.11742664748083
C        -0.61562025605635    5.73384575948611    2.58342814066596
H        -0.67235675053356    5.61587860985508    3.67238391941524
H        -0.66654083454379    4.72074726540680    2.15329815234436
C        -1.83325509373566    6.54206874624670    2.08503377538732
H        -1.94819922940073    6.33717901216919    1.01213937929817
C        -3.11798312456168    6.17584462741012    2.84743551143129
H        -3.23839868336848    5.10554268388027    3.01703325380590
C        -4.31549553435248    6.81886418511152    2.13455155214474
H        -4.27913973123933    6.65092005133538    1.05852970148939
H        -5.25348541340588    6.40380609662338    2.50535698549934
C        -4.18572695589132    8.31203763139207    2.49825832117710
H        -5.03138885302377    8.64115311274673    3.10571458414023
H        -4.14028847304830    8.95290046841460    1.61741586363665
C        -2.87787461638054    8.35338727882510    3.31187515182813
H        -2.78646444536352    9.27662469208201    3.89996365629263
C        -1.69869543365383    8.07665222238758    2.35130287505195
H        -1.93327249283549    8.60181606449811    1.40401798556298
C        -2.99998668215098    7.04666923525529    4.09829531153902
H        -3.89168260803568    7.00870541351936    4.72427200761064
H        -2.12264340295772    6.81078364751998    4.69789845203732
C         0.48107204556861    9.91394344841716    5.00699432608083
H         0.07038029470150   10.91052695602496    5.12915508320169
C         1.82928398779093    9.60041932290244    4.75208901056732
H         2.63159866268707   10.31667559851869    4.63387062904055
C         1.98157208607977    8.20368310703744    4.82674991873410
H         2.92039223762844    7.66285370517913    4.77513350179907
C         0.72963881095484    7.64960175211140    5.17979358192295
H         0.55787778293796    6.61904928771471    5.46522998656387
C        -0.19957041576341    8.70807589109275    5.28866540761022
H        -1.19516485827459    8.63892889116487    5.70548525345979
C         0.55408076298082    9.30843668725077    0.43744072800343
H        -0.01458218989583    8.83918877400445   -0.35606109554670
C         1.87829613969588    8.98738143987778    0.79969185775162
H         2.50594175741597    8.24731909805994    0.31781973538669
C         2.30309424118374    9.91982763053579    1.76585431426030
H         3.31373120264692   10.00950790782424    2.14532955184890
C         1.24240065294856   10.81553625375227    2.00548946668047
H         1.29398144254840   11.71830353615450    2.60254657912067
C         0.15461729020729   10.43292437562608    1.19508910733148
H        -0.76435112735719   10.99473098015078    1.06403573901092

