68
CSD_code = HUDVAD | q = 0 | S = 0 | Stoichiometry = C25H40Si2Zr | MND = 12
Zr        3.90585385209052    5.65151879209516    3.83712336265301
Si        7.08156792220822    7.17054912821929    2.20742363229768
Si        1.11565053549074    2.94362158990861    3.86496037317169
C         3.48407329339613    5.12662101073692    5.95454405002924
H         2.74432348559920    4.33175022810884    6.14491345714577
H         4.39995660597229    4.84155717050948    6.50637651803030
C         2.96422086584626    6.42404273821087    6.59503849600922
H         2.89193703247909    6.33635265060221    7.69185525808810
H         1.95087153960110    6.63335930589346    6.23102139260753
C         3.89484647083110    7.60443446536371    6.25628223496508
H         4.78220012815936    7.51756501647292    6.89934642770755
C         3.19687854265388    8.95622767334784    6.47788267832866
H         2.59834625942238    8.99685110729567    7.38869960252194
C         4.24584268751980   10.07237120782823    6.38709559180488
H         5.12996386631711    9.84042148784503    6.98086348264934
H         3.83857742025194   11.01665465986160    6.75115101948291
C         4.55492896275610   10.14278421690014    4.87827866421073
H         4.25330033491128   11.10731652655431    4.46376993371130
H         5.61448664189869   10.00597350118836    4.66229478229887
C         3.69300857812916    9.00528076565659    4.29762906118469
H         3.54002551790877    9.12382428918275    3.22174216169824
C         4.29679835825395    7.65184244452922    4.74458394788913
H         5.39678846445114    7.76861584864997    4.69680578810877
C         2.43983813498292    9.13612150809691    5.16269044948691
H         1.96498356363543   10.11408390488971    5.08013892554544
H         1.70153237445757    8.35828339393148    4.97552703608730
C         6.24031858912192    5.66717592780574    2.94406737439826
C         5.56336091128530    4.68535681992657    2.17136104493277
H         5.42788426710002    4.73117191479095    1.09727790228726
C         5.26917084194137    3.58616129882571    2.99028726907542
H         4.85707029574509    2.63985658395701    2.66478379297644
C         5.76969053416058    3.86049449105487    4.28031750044607
H         5.80550513191629    3.16003212802328    5.10527936509936
C         6.36541192611740    5.13059380792679    4.25534660207005
H         6.92008903369337    5.58367773755180    5.06795226995013
C         1.79015198591085    4.52454795530689    3.11265513973111
C         1.44267963485321    5.85597508506417    3.47784934940751
H         0.74567666294599    6.11733535550601    4.26347479575098
C         1.98642899648631    6.74120017258707    2.52999856345568
H         1.76986154517765    7.79852858816974    2.45310279357513
C         2.67414581463094    5.97139167635438    1.56325289369784
H         3.09303085467212    6.34916446717268    0.63756995146007
C         2.53719625507390    4.62050243580501    1.91189614357360
H         2.84391621231157    3.77908621343855    1.30401653503557
C         8.23338819176723    6.63282592502801    0.77684004972812
H         9.01045284706878    5.96178575158406    1.12859553386577
H         7.68560499891623    6.11488268809445   -0.00411552082762
H         8.71942887252497    7.49092510745404    0.32299890668566
C         5.72446655407165    8.31997956306856    1.47771740529017
H         4.72949616861793    7.91339786758167    1.67284462124329
H         5.83616082982427    8.42844078837442    0.40295602173057
H         5.76546935159870    9.31633583947442    1.90619475920396
C         8.15390370837601    8.09237484812265    3.49276945180828
H         7.58659814086416    8.40860454426991    4.36199704830366
H         8.96350171405904    7.46028056048277    3.84283382665667
H         8.59866550437808    8.97851084451850    3.05138035708230
C         0.13292420587469    1.97064617957393    2.54224812523903
H        -0.26238584336718    1.04668430534910    2.95226099638030
H        -0.70450424950132    2.55009173357441    2.16694888315271
H         0.75606830667311    1.71149493779696    1.69210127052858
C         2.52947747628242    1.80738538444850    4.49295368381112
H         2.95438156858991    1.22675016654456    3.67901736486705
H         2.15929281648407    1.09856720117320    5.22773845363707
H         3.33555277548866    2.37522015701323    4.95546092815246
C        -0.07230403977408    3.36790949257642    5.30176255986711
H        -0.44251706916502    2.46318761560835    5.77311196729207
H        -0.93316596499858    3.92285190905603    4.94278483186545
H         0.40785220298077    3.96578929809246    6.07007085979855

