75
CSD_code = HUDVUX | q = 0 | S = 0 | Stoichiometry = C32H39NOPRe | MND = 8
Re        2.19305987836891    5.77309963324416   14.03140994198977
P         1.41150046323053    3.52401201408826   13.88847007075581
N         0.62945206498529    6.52641184518828   13.86258069700254
O        -0.40561859705538    7.10764278527858   13.82673576859252
C         2.59613462525165    5.86298522109613   11.87922444089127
H         1.90525946922167    5.35056645678804   11.20784641662379
H         3.58421354813438    5.42290302454394   11.72304865668489
H         2.65010963753788    6.90497544714732   11.55614002010523
C         4.41272968277456    5.44686116490002   14.85034825850092
C         5.52212338317313    4.52714355477967   14.42230450701350
H         5.65465415397607    4.53868468275279   13.34004107052974
H         5.32794542867922    3.49821044046023   14.72186207320090
H         6.46517142929650    4.84132689553635   14.87854264520598
C         3.60767363358035    5.29066675196264   16.02745989467212
C         3.62884234686197    4.13089765881490   16.97447447324140
H         2.62058392969900    3.83470213431384   17.27011701613793
H         4.17437191476173    4.40784314800043   17.87988471099328
H         4.12269200070152    3.26800129628063   16.53232367080107
C         2.94165944180240    6.51715243372168   16.27980773494654
C         2.14101229374041    6.84341483827535   17.50306566698815
H         1.32761288886576    7.53071611313334   17.27301463803408
H         2.78159371152608    7.31976608109547   18.24991959976157
H         1.71848523666801    5.94360920072099   17.94744490292518
C         3.32576749497960    7.44889818734417   15.26568019613771
C         3.05485615617344    8.92240046836947   15.29743108579505
H         2.07320117716789    9.13267979734889   15.71870931401794
H         3.09459308768747    9.35019638092669   14.29743774552352
H         3.80495595007604    9.42522893128637   15.91335570429767
C         4.26690218724248    6.79345362616752   14.40240172434288
C         5.15323545846061    7.49094758520870   13.41587855960627
H         5.54920192200546    6.79719171212226   12.67645731417730
H         5.99792989417969    7.94558707904987   13.94015946189422
H         4.61755125750465    8.28049649022511   12.89118054887300
C         0.41860423681011    3.01609737493333   12.44348643161547
C         0.47981406489012    1.74678096156455   11.88167241354951
H         1.17985066415849    1.01437765410412   12.25941310508259
C        -0.34565866953138    1.41625003364842   10.82144606300811
H        -0.28507982347095    0.42668788912180   10.39002622699783
C        -1.24798684115128    2.33551767068233   10.30406504110287
C        -2.14190389106490    1.98539207011743    9.15467905913773
H        -2.01276064075414    0.94751303356624    8.85871123511396
H        -1.92028597800266    2.62139669673715    8.29860407755966
H        -3.18464644179957    2.14581403695160    9.42426599490393
C        -1.30289977853648    3.60558444480931   10.87226533280585
H        -1.99563830748856    4.33386926803605   10.47665739654135
C        -0.48153131157202    3.94484441695550   11.92748917442449
H        -0.51042986754618    4.93608382671104   12.35795825965896
C         0.29414930307594    2.99549934021205   15.23172519452902
C        -0.11060030394661    3.92466747589532   16.18122946482997
H         0.24590923955807    4.94390744890302   16.10076231468591
C        -0.96482131403041    3.55465976724320   17.20320061669432
H        -1.27140029729039    4.28578588626577   17.93780763872758
C        -1.43976630482117    2.25215541763850   17.29382603838957
C        -2.38191659083926    1.85017292198069   18.38603772221450
H        -2.29687782886685    2.51752969118372   19.24007552356388
H        -2.18766456399523    0.83030512333838   18.71120915537320
H        -3.40878636949691    1.89545901882426   18.02216585849527
C        -1.04615724717938    1.33048094476954   16.32757447822284
H        -1.41795889150792    0.31672939839537   16.38015005583172
C        -0.19307877972907    1.69345850039551   15.30465047531447
H         0.09602015462621    0.96804889993359   14.55726037004280
C         2.74088241776886    2.28853429709182   13.88768427840730
C         3.56577879407825    2.25323351866077   12.76356249066765
H         3.35249432408176    2.92307923411327   11.94182695295511
C         4.62926053254806    1.37763404862541   12.70674651723232
H         5.26283245796726    1.35369463501357   11.83131050984326
C         4.90578513331012    0.52259240389565   13.77192527389303
C         6.07362354709185   -0.41225506527236   13.70280941480259
H         6.09121817804642   -1.08095270218515   14.55971201904838
H         7.00623119692188    0.15161690960052   13.68487650065134
H         6.03046819138655   -1.00861405782115   12.79275116944045
C         4.08488145707391    0.56857419080224   14.89057284415224
H         4.28687025270079   -0.08568848586250   15.72749503738397
C         3.01270318389789    1.44286867624309   14.95502110435168
H         2.38591556149954    1.46214010417924   15.83523263851645

