64
CSD_code = HUDZUB | q = 0 | S = 0 | Stoichiometry = C24H28BN5O3S2Zn | MND = 5
Zn        6.65629605492356    9.11858119059461   17.05405938216019
S         6.98212404714352    8.55657191352712   19.33449100467566
S         8.40036566719269    8.15072205656829   15.74563851344972
N         5.85927253398285   10.84756656645488   15.62365187981320
N         7.24477412762056    6.14420312452836   18.00919217208361
N         8.73943217583010    6.55267742814332   19.55433413812281
N         6.57005640257976    6.10987719906897   15.60426126983973
N         7.53480699432185    6.63763473885067   13.71068715960942
O         6.53727195577074   11.08943828626544   16.63952640619478
O         5.47064197441272    9.67048448004742   15.46975441280907
O         5.59355056024168   11.69517375036199   14.82905414054399
B         6.03814460993250    6.21301928993836   17.04656933121295
H         5.29995733878395    5.31495423580453   17.26555239653140
H         5.50339170572835    7.30104395276448   17.15299506881865
C         7.65169485562602    7.03629902137610   18.92146562813376
C         8.10849305168779    5.08485631961525   18.06388323822194
H         7.98732914950030    4.24056950149995   17.41742735884709
C         9.03778334248094    5.32937203058805   19.01795119348825
H         9.86824210035440    4.74953645208270   19.36374739295634
C         7.44170704807653    6.94035070497608   15.02042674390838
C         6.09493859121209    5.27426668913140   14.63344714299945
H         5.36735291356304    4.52327205689215   14.85925324567256
C         6.68613984216580    5.59420056598399   13.45670325077367
H         6.58572452581103    5.17566000455484   12.47685807963365
C         9.47744070511721    7.23478723307319   20.55909516786258
C        10.59060014691352    7.98368722306547   20.18202529234252
C        11.30109511663231    8.64002328173198   21.17520341780101
H        12.16427911878910    9.22872568875672   20.90090367129975
C        10.92117152147806    8.56616750394342   22.50814041337931
C         9.80154428031830    7.81848603750331   22.84687380591768
H         9.49315326387988    7.76301848233262   23.88060440775318
C         9.06215754739115    7.14749040786647   21.88579030355832
C         8.30512617179072    7.35484717561377   12.75590668408510
C         9.65675773609753    7.05694383748394   12.60665721603583
C        10.38634623764649    7.77709975863766   11.67301044768729
H        11.43665894837925    7.55846068792881   11.54622454920541
C         9.79797074139164    8.77512222248503   10.90989791429961
C         8.44905380455180    9.05232323731023   11.09054340288051
H         7.98678144526213    9.83572075702621   10.50807485256408
C         7.68160734105130    8.35559784864658   12.01046846959746
C        10.98828107512008    8.08114488155845   18.74216961160222
H        11.20897091072239    7.09688290086615   18.32922179047199
H        11.86661242142826    8.70996594735422   18.62900344196876
H        10.17992073836600    8.51184110790708   18.15042874083631
C        11.68625231495999    9.30732733202528   23.56058665060345
H        11.24955340386497   10.29608746420613   23.70301338952200
H        12.72547917442517    9.43709849029057   23.26845762622159
H        11.64688729834529    8.78266747229210   24.51228998584489
C         7.83720498370153    6.36535348371633   22.24338075068373
H         6.95988232934931    6.84197947033731   21.80660278783072
H         7.70950885331079    6.32399460196771   23.32128770660055
H         7.89460960464978    5.34827183051090   21.85667829249812
C        10.29515593133275    5.99897669471981   13.45273106738066
H         9.73737747763929    5.06443484688192   13.39748708048299
H        10.30934470801907    6.32286060676924   14.49351000668566
H        11.31698379912092    5.81691840813270   13.13204889774921
C        10.60110101416333    9.56426019156229    9.92267745125622
H        10.04911219895723    9.69507067679983    8.99414205462327
H        11.54681875727599    9.07391102546230    9.70656926615647
H        10.81275855892057   10.55423250101369   10.32662702786117
C         6.23015287958320    8.66357304124437   12.20737154430313
H         6.00841384958963    8.85264205434310   13.25717483522397
H         5.60995978893675    7.82572654660164   11.88758416310358
H         5.94582223259747    9.54234548040628   11.63590526372449

