51
CSD_code = HUFCUG | q = 0 | S = 0 | Stoichiometry = C14H30Cl2FeN4 | MND = 6
Fe        1.58895727120090   11.38592405159365    3.74858962307457
Cl        0.65261965218008    9.68500585904649    4.82248475515450
Cl        2.95757362700930   10.04714451028809    2.62856925707398
N         2.50823226470397   13.04871070807687    2.95828541033376
C         2.82915466379224   12.97932971338356    1.52567112923461
H         3.43718146865612   12.08294270339769    1.39596970245461
H         3.42060376956235   13.86211459786676    1.23869235760158
N         0.24867698952418   12.70434719640495    4.58454268865769
C         1.64268962065808   12.84644156364040    0.57998009904432
H         0.96987034715097   13.70525126855390    0.63429727858551
H         2.05106008981860   12.84711465256982   -0.43331767242683
N         0.26574323727363   11.29359894508956    2.05028963426507
C         0.88509942783147   11.53469245951138    0.74404645955171
H         0.11503907490035   11.47779605404364   -0.04153189013554
H         1.59686309526147   10.72131078949362    0.59598351549679
N         2.89372370425659   11.61314396782290    5.44870928361649
C        -0.32384248168100    9.95655742153196    1.97527064405420
H        -0.99303475358236    9.86742261862689    1.11006305021255
H        -0.87382231535258    9.73128751558717    2.88217602832765
H         0.47921843563783    9.22871092004862    1.89013954807061
C        -0.76626607151071   12.28124700996835    2.36150419972634
H        -1.71727071272269   12.02420904430205    1.87232894275550
H        -0.45842400720085   13.25862010368354    1.99567020748472
C        -0.97922971547295   12.34957534313228    3.86563936003762
H        -1.78714578943163   13.06105186750560    4.09732461436494
H        -1.27303809452569   11.36178743932898    4.22095277455662
C         0.64940239489895   14.09165374537083    4.32847402810298
H         1.01297206075226   14.51952091668086    5.26062267681298
H        -0.22804878727464   14.68606587657994    4.03904897552909
C         1.73969328425730   14.26222562707204    3.25415053443268
H         1.26782345633222   14.60030017984397    2.33371398220335
H         2.41917312628255   15.06763296116054    3.56502024188715
C        -0.03427782040980   12.50559145817885    6.01305761535532
H        -0.36951205736794   11.47232835951522    6.11311274061230
H        -0.84598464769221   13.18081015118095    6.32398850598094
C         1.14653783948722   12.67831327418245    6.95939950643831
H         1.55458955737825   13.69124862126667    6.93400854060286
H         0.75830664135364   12.53504340320736    7.97048160689439
C         2.23745130537708   11.63362904901664    6.75901389355001
H         2.99648665394029   11.76886414798493    7.54576030280080
H         1.77977764840858   10.65070897862376    6.87954149666766
C         3.61011886864447   12.85712030008106    5.17182333839565
H         4.59717353513184   12.85924105445811    5.65709695961156
H         3.04490875684428   13.69933799073193    5.56560479460652
C         3.78941550171830   13.02702426854824    3.67136205580599
H         4.36729369279668   13.94132498678511    3.46463662319955
H         4.34418115702671   12.17065521658656    3.28775512199385
C         3.83117955076778   10.49031670498547    5.48580587435797
H         4.50263946656365   10.56417379062054    6.35069285487667
H         4.41805552027467   10.45381818758756    4.57479537790966
H         3.26181049657036    9.56611242525033    5.54560135019838

