128
CSD_code = HUFFEV | q = 0 | S = 0 | Stoichiometry = C62H50IrN3O6P4S2 | MND = 6
Ir        3.59332037581544    0.91378701910052    4.63221997521528
H         4.71583495047831    0.23530161066947    3.84185927199128
S         1.82759527463641    2.06046585620883    6.12987679809753
S         0.52138044927189   -2.59653348855882    9.47491618007649
P         1.43855089887690    0.44913604916060    7.21261826818718
P         2.37777128937900   -2.81925454991956    8.94462307364439
P         3.78773964374245    2.91650047821436    3.57236394338018
P         1.84772500074520    0.01829886760406    3.36802187961608
O         4.97466823831391    3.68649519051806    4.34413076371500
O         2.55583123213873    3.91565760878557    3.72229688363018
O         4.14764052336446    3.23251804616884    2.03126278420451
O         0.66651261322138   -0.56310706212185    4.29747049410757
O         1.07794798289563    0.80334802243547    2.16854025875472
O         2.15855296952425   -1.30872093934105    2.53131587406245
N         3.42064538112939   -0.73128553571366    5.75000675989039
N         4.13035501681134   -1.82851526418408    5.65895379522420
N         3.83185118433298   -2.65377293317462    6.61224500000556
C         2.87602300185727   -2.09777295939941    7.37354692369075
C         2.58566053921421   -0.85019486770406    6.81235220035514
C         1.69769760961614    0.79812486753548    8.97772907507602
C         2.96142787304776    1.25551774717354    9.33782460823937
H         3.72159263846525    1.38994198033763    8.57771780399966
C         3.23205669633558    1.54843652851851   10.65984574525441
H         4.21301849452531    1.90146006729641   10.94070720839271
C         2.24416448531493    1.38560172763509   11.61822974565813
H         2.45752396788520    1.61056365734403   12.65280019113580
C         0.98390787606876    0.94155239592040   11.25426551964962
H         0.21540005379042    0.81640718682339   12.00229152439594
C         0.70125336254163    0.64988765258135    9.93161051537847
H        -0.27636813369091    0.29076158823737    9.64515297632195
C        -0.27710205914866   -0.10947881454828    7.00745920364355
C        -1.25400653483706    0.87958517229779    7.05530695231781
H        -0.95900609233891    1.90757003493886    7.22778848777371
C        -2.58159422169151    0.54158142763915    6.87640186642297
H        -3.34278011219026    1.30725217799526    6.91531040073881
C        -2.93158213334372   -0.78033719141506    6.64752847787076
H        -3.96919323484958   -1.04523032417229    6.50835355849682
C        -1.95616850381501   -1.76053834636998    6.58922226564236
H        -2.22851517829322   -2.78794923120608    6.40203904446914
C        -0.62444341644354   -1.42881647202834    6.76152620252108
H         0.13675946654506   -2.19243845017405    6.70849707312546
C         3.55395503333003   -2.05410272970391   10.11853529022735
C         4.81212922310174   -1.61438025154949    9.72582473800794
H         5.12920183569264   -1.71475574691634    8.69761719165581
C         5.66145922644336   -1.04989065834669   10.65899176574721
H         6.63978841648567   -0.70872601459538   10.35343879932861
C         5.26212456314154   -0.92543670143300   11.97960406063280
H         5.93034082504382   -0.48460024598919   12.70491119836442
C         4.00773168305277   -1.36339812390242   12.37070835744991
H         3.69505113957317   -1.26730564863370   13.39997907862620
C         3.15227600372924   -1.92409133001642   11.44109741608160
H         2.16363003275356   -2.25806102951903   11.72553288907923
C         2.90719769892058   -4.55838393459963    8.81677802971021
C         1.94863120689939   -5.54922216797480    8.97887310658505
H         0.92208878540265   -5.26462544712273    9.16986957285499
C         2.31410602541074   -6.88085262880802    8.89848591242452
H         1.56840420404171   -7.65233804596297    9.02332925382584
C         3.63519918040208   -7.21977331135584    8.65929411935530
H         3.92216741280679   -8.25939705754086    8.59665403567522
C         4.59123364269518   -6.22835858525592    8.50079471443146
H         5.62070802126563   -6.49605686742057    8.31340783804394
C         4.23496338996133   -4.89548891825497    8.58121872644050
H         4.97510861939469   -4.12288611258330    8.44801211013098
C         5.46186658971525    3.05491198020735    5.48869944350176
C         5.07466113840900    1.74387662604671    5.79302587235160
C         5.65633510678305    1.18631397145013    6.92862071846950
H         5.43665267428840    0.16139175489045    7.19074134354503
C         6.53233790841986    1.89838359307505    7.73477860538971
H         6.95114266497620    1.42967507492644    8.61358851123803
C         6.86841348408223    3.19999674556366    7.41572877455282
H         7.54630129117326    3.76224710388908    8.03987682614995
C         6.33478229048501    3.78173553864864    6.27816645118204
H         6.58269319878419    4.79249172445353    5.99231917211287
C         2.62204956992700    5.27767255930427    3.95551262688847
C         3.40856792326323    6.11946861818378    3.18778193521874
H         4.02805389630463    5.70209504191372    2.40977024847880
C         3.38539067557865    7.48192823997832    3.43357717915725
H         3.99847378545090    8.14044255607804    2.83643810210573
C         2.58371901438753    7.99945270831088    4.43634716223701
H         2.56830209161863    9.06291927292050    4.62216129516986
C         1.80741225185988    7.14877417315421    5.20654872232371
H         1.18884241906515    7.54648815476138    5.99727352032212
C         1.82760024497043    5.78617809254452    4.97340444472788
H         1.24634960572194    5.09935006894021    5.56825979842729
C         5.05055443124012    2.55702066979606    1.24592311271759
C         6.12132301108674    1.85198938959806    1.77153790276584
H         6.25389447842866    1.80271350306921    2.84158048077737
C         7.01135925290886    1.22773251961564    0.91493819078922
H         7.84169657897618    0.67660078951998    1.32798265471717
C         6.84604355258668    1.31572025226592   -0.45600029672504
H         7.54944967705292    0.83614547255162   -1.11927159102449
C         5.77798132589256    2.02737792692173   -0.97580258586532
H         5.64537651658041    2.10468878009015   -2.04464183612340
C         4.87628001873228    2.64556123714734   -0.12986649304114
H         4.04188552345170    3.20949650174677   -0.51756991562344
C        -0.28439047047913   -1.44770504402944    3.80376341040586
C        -0.03023125956539   -2.80978285470653    3.84003317810014
H         0.92567900533312   -3.16129516657126    4.19778068984689
C        -1.00576312941921   -3.69445549501592    3.41763866662583
H        -0.81078389943510   -4.75592050658940    3.44759601088364
C        -2.22381124016510   -3.22224024081095    2.95806261031915
H        -2.98334395866710   -3.91585692060749    2.62989034540041
C        -2.46500245822827   -1.85992524479915    2.91570827062943
H        -3.41092167181618   -1.48660289731803    2.55280073623400
C        -1.49552884576404   -0.96590965451694    3.33482443073361
H        -1.67478862259349    0.09816020349278    3.30721990839378
C         0.67826334998529    2.11853044745247    2.21456465646743
C         1.01878598085845    2.93868391735449    1.14775197637351
H         1.61293700122065    2.53066601472608    0.34435894245131
C         0.60172546477910    4.25653474356841    1.14010030544335
H         0.87604392761734    4.89960933278578    0.31711439348958
C        -0.15499758279052    4.75498105103690    2.18707517036592
H        -0.46905281954821    5.78793786002112    2.18384492498880
C        -0.49762948603238    3.92997228236847    3.24369847903918
H        -1.08426287349257    4.31566781194395    4.06394967030246
C        -0.08234268182206    2.61096063691635    3.26355751493390
H        -0.32605125021747    1.96721051341633    4.09603431341083
C         3.28970283698766   -1.41250435249593    1.73593254259057
C         4.42392931492901   -2.02607320439905    2.24531224304692
H         4.43236747595633   -2.36609289346328    3.27009191096436
C         5.53133361050865   -2.17636603425076    1.42851608712066
H         6.41638213756524   -2.65304213654854    1.82038395485854
C         5.50718387841759   -1.71753627975933    0.12278992354782
H         6.37214327626382   -1.84152904507469   -0.51072369693365
C         4.37301283541484   -1.09726855965667   -0.37206488158883
H         4.35280624338578   -0.73333799211724   -1.38807203097761
C         3.26033140536230   -0.93864265339077    0.43444434377408
H         2.36503667429419   -0.45984325413599    0.06860284386466

