58
CSD_code = HUFPEF | q = 0 | S = 0 | Stoichiometry = C23H26ClNO5PtS | MND = 4
C         5.15444739056042   -0.38406007881331    5.16011044272472
C         6.40462737756336   -0.48282757881768    4.57382421301444
H         6.53013613067968   -0.24109973632320    3.52880860525164
C         7.50330826702496   -0.88624913089488    5.31941935822940
H         8.47494299982871   -0.94465349982077    4.85068401147633
C         7.36486914173737   -1.22145335536283    6.65865215441637
H         8.22476133803612   -1.54509780316768    7.22647092670696
C         6.12892375331499   -1.13978290070714    7.26781469931504
H         6.02448651693241   -1.39937630043852    8.31063546809293
C         5.02394268484305   -0.71700881771030    6.52837085377975
C         3.70216121814295   -0.47790425086722    7.08438180548452
C         3.30950931334492   -0.74489533267030    8.40826612761778
H         3.98010644119475   -1.25736777366172    9.07908463731918
C         2.04829642681726   -0.41495415867231    8.83938492155730
C         1.20027881990528    0.35093552913172    7.99363334517192
C        -0.02662226509149    0.91204011847488    8.39618177202475
H        -0.38068523185964    0.74923666484357    9.40132665328104
C        -0.75388886699867    1.68560792130980    7.53056330950339
H        -1.69637071521705    2.10574212518651    7.84842834623740
C        -0.27266164820696    1.96722870945497    6.24528854968159
H        -0.84024919981303    2.61137444892427    5.59131090611745
C         0.92103381492757    1.44627561800985    5.82599717876999
H         1.33000556946341    1.68402846980424    4.85173990526392
C         1.66723213603345    0.60368538504070    6.67186697429019
C         1.65179306952911   -0.85371023462555   10.20773436033536
C        -0.12212571379276   -1.70114852507028   11.50048718393684
H         0.63910482817728   -2.24385234127437   12.06963095500870
H        -0.96659769423299   -2.35508273646691   11.27789674383044
C        -0.56054018956664   -0.46115549369524   12.29833118460398
H        -1.08499156626083   -0.79569789249687   13.20490903141443
H         0.32414834883019    0.11373410068028   12.58296002108871
C        -2.63394506769501   -0.04701889809231   11.20362245525311
H        -3.07864059526428   -0.60171038800876   12.03943938810223
H        -2.57268409228391   -0.70106984870845   10.32263656132339
C        -3.52122918994940    1.15270674955671   10.88907070207086
H        -2.91176772461349    1.92383629743371   10.39597905909474
H        -4.33096263732738    0.85215979718839   10.20512090600391
C        -4.79730037173485    2.82795769338164   11.91864993851698
H        -5.64523784170595    2.67318033237094   11.23892988432471
H        -4.16941540817511    3.63407433795378   11.51940027830846
H        -5.16752305658951    3.10957009524201   12.90193097025445
Cl        1.15774635285656   -0.56986954230368    3.45665439857921
N         2.84262873847747    0.09095255525692    6.22738346307266
O         2.39311316362716   -0.84357998344617   11.15720101125429
O         0.39930893991037   -1.31594310497709   10.23452400236147
O        -1.34995107120864    0.42751874407235   11.55501977441756
O        -4.06086589891606    1.64554012084152   12.09072514894710
Pt        3.35677026715817   -0.15457814277686    4.30375306953387
C         2.98180948386831    0.76207198965227    1.11055441878092
H         1.92553501453072    0.59812689077808    1.28991871274493
H         3.24884192643839    0.59300010546638    0.07371034814467
H         3.27024070362568    1.76503585972350    1.41064978888432
C         3.31900919943782   -1.96647184544805    1.42043915139838
H         3.82802275513116   -2.78020929830191    1.92722450587659
H         3.56590496775845   -1.97098954887277    0.36518998114276
H         2.24970091721584   -2.02377435519432    1.58533814464849
O         5.31122325884627   -0.28071519387941    1.71647300900577
S         3.92368477108168   -0.40871256800180    2.13686628233498

