81
CSD_code = HUFQUU | q = 0 | S = 0 | Stoichiometry = C32H40BrCoN2O5 | MND = 6
Br       -0.05421864672527    0.86989731030452   20.06118344997838
Co       -1.46798165913210    1.19623599915761   18.25662926897749
O        -2.57156099288626    2.40623972216099   19.18663381421881
O        -2.57389014175910   -0.24159614668066   18.79422417439122
O        -2.61017280023039    6.54361869735012   19.04412535491344
O        -1.71452106047212   -4.30470684919292   18.60627465976152
O        -2.97917788665487    1.47300113981813   16.60648369871818
N        -0.42102773498861    2.57360355528496   17.61318452220276
N        -0.50581257064099    0.06164730127106   17.17158858414905
C        -2.56155226509336    3.66869842333782   19.21940550795396
C        -1.60939768332765    4.46591654934586   18.53420331700606
C        -0.57312791198656    3.84391411984746   17.79907072196842
C         0.77610409950501    2.03238467759505   16.96095069674890
C         0.22213121445045    0.82960788784970   16.15723045108617
C        -0.45382988617112   -1.22851540416716   17.22717749258368
C        -1.23759627028870   -2.05056580128985   18.07078120572859
C        -2.31063358552959   -1.47923162583546   18.79726385920534
C        -3.64316339102686    4.28768651942315   20.05585303449889
C        -1.66144405393076    5.92669437174552   18.59248500478174
C        -0.46494923741272    6.69653957055762   18.05796404867936
C         1.66710482794789    3.06839620862709   16.31069617751400
C         2.65820838482644    3.63596767609606   17.13314957661230
C         3.55347354200989    4.55119820008734   16.59841555971970
C         3.48879866967920    4.94605875234545   15.27281957588826
C         2.45900522392615    4.43891859107005   14.49791591100282
C         1.53897311894947    3.52526508776807   14.99536184253150
C         2.76827061614600    3.32607457429918   18.60008066141681
C         4.47526296272925    5.91146873723437   14.69277618733608
C         0.42979513389024    3.10446469569683   14.07705674415575
C         1.13395280287585    0.00306197237235   15.27602470692992
C         2.46106820640210   -0.31717290567254   15.58288168443098
C         3.21800902875350   -1.02587284166293   14.65860979668175
C         2.69758990192845   -1.46160159997368   13.45135701656593
C         1.35705930954632   -1.21976964024090   13.20207587724308
C         0.56784970960492   -0.51297194005743   14.09713556306838
C         3.12095696286353    0.03265070744589   16.88249184948402
C         3.55561739226126   -2.20416265561317   12.47474233211531
C        -0.89721442330763   -0.37483733038242   13.77935920641033
C        -0.95182490518083   -3.48489481963129   18.12891255011780
C         0.38728549748804   -3.93933223003538   17.57515750054907
C        -3.24345887499292   -2.32993097782666   19.60533513205738
H        -3.58726216376876    0.74353526602657   16.77567875624246
H        -3.46573436836668    2.27932612484278   16.81057022387860
H         0.16485532923697    4.49240356481237   17.33745645617875
H         1.36021105003476    1.60333283437980   17.77947599522656
H        -0.56119954036279    1.23439543176275   15.51091708289424
H         0.21938169603056   -1.72424747550093   16.53340066182869
H        -3.20958428878640    4.96138236399532   20.79060599517328
H        -4.30753414349590    4.88421678835934   19.43468647180618
H        -4.19910808561655    3.49653798177240   20.55431940292889
H         0.45575351322685    6.36707926133223   18.53352140755615
H        -0.37280904854802    6.57645071254798   16.98026129344037
H        -0.62195840417740    7.75039275021720   18.27529078568871
H         4.31660028932361    4.97063541469561   17.23826490513450
H         2.36101442324869    4.77190759126607   13.47428787749008
H         1.80433622953972    3.38371610581727   19.10174278537122
H         3.17056443680959    2.33035802834433   18.78158311670607
H         3.43742475629066    4.03916283128172   19.07514680857398
H         5.13693724980817    6.30176057900122   15.46149450594095
H         5.08040736435106    5.41679441794090   13.93357430790385
H         3.96086536108289    6.74445549910418   14.21622903698635
H         0.36359809619268    3.79580317066271   13.23950747178666
H         0.62785021314747    2.11243331065592   13.67597203906656
H        -0.52935804559893    3.10444824667391   14.59064410394430
H         4.24737538510066   -1.25347250663020   14.89595571401880
H         0.91048511036274   -1.59773349595708   12.29327506929364
H         4.01076786522193   -0.57848397797288   17.01680704744545
H         3.43299708840815    1.07496090749487   16.87766834363555
H         2.46147627552064   -0.14417195078450   17.72913852096526
H         3.97534762038255   -3.09549575621179   12.93891741980474
H         2.98347734234705   -2.50302219233449   11.60027939653390
H         4.38526192756606   -1.57716519954571   12.15073316307615
H        -1.51199022605244   -0.65087228910290   14.63497796407313
H        -1.15883120588643    0.64147147047014   13.48471673298138
H        -1.15563406104539   -1.03266466787609   12.95282548632181
H         0.54640695286386   -4.97142051429700   17.87781489304340
H         0.38431345104984   -3.89959299266264   16.48702471422864
H         1.19714691412955   -3.32095530442038   17.95278610720889
H        -2.67799971780373   -2.89913642024869   20.33948171668521
H        -3.96610517471648   -1.68869885225676   20.10523703943363
H        -3.75000809109552   -3.05107533748534   18.96816086011886

