17
CSD_code = HUFQAA | q = 0 | S = 0 | Stoichiometry = C4H8I2PtS2 | MND = 4
Pt        3.73294771469102    3.73299108024144   -0.00005664179107
I         1.50900234989653    3.50047043037582    1.26945386832620
S         4.22485503922336    5.77607021419194    1.01421970630845
C         5.88847734568905    5.26070936125641    1.57542568047517
H         6.33942289469721    6.11367209775989    2.08646521964898
H         5.70800813627441    4.46993658216187    2.30623176886828
C         4.77220488140480    6.76042916634011   -0.42631403537634
H         3.90837343267108    7.35485767162153   -0.72417608416525
H         5.54891276067953    7.43316409156032   -0.05938658849010
I         3.50058316930966    1.50898097817845   -1.26930007140439
C         6.76039830266764    4.77217941208731    0.42630379217378
S         5.77605785778057    4.22487923945618   -1.01426185608945
C         5.26072929293422    5.88852099114511   -1.57544601116811
H         6.11370780161688    6.33945892788381   -2.08646626449352
H         4.46996135277222    5.70808198687644   -2.30626423266383
H         7.35479244954355    3.90832372162244    0.72416464515210
H         7.43316521814829    5.54887404724083    0.05940710468890

