100
CSD_code = HUGDAQ | q = 0 | S = 0 | Stoichiometry = C44H52HgINSi | MND = 2
Hg        1.16484802541674    4.93419870760233    2.72604168742165
I         0.45602803504842    7.22865671335554    1.69245818609593
Si        3.00817864878635    2.22451449828109    1.80114641230180
C         3.31641514518197    5.22456337209934    5.11424813175050
C        -1.08292717266852    3.01925620455604    3.51771995111808
C         2.65685952470563    2.18135309997813    6.59187788108967
H         3.37485293168368    2.37112495247089    7.37695240489051
C        -1.62672336142682   -1.84618545068720    3.77064457048355
H        -1.26797572731139   -2.83553659229802    3.52705144112395
C         0.77393440176926    1.77870262130624    4.61076267092513
C        -2.53111581561443    0.69330669714310    4.39550680114279
H        -2.89035213856291    1.68092942236967    4.64738501044584
C         1.92091565489006    2.53569264705826    4.31804046591327
C         1.57999607821430    1.34794607167450    6.85013302828718
C         3.80702038024501    3.63871265614596    0.74935048897574
H         2.98274748620698    4.31326188824302    0.46143260912454
C         0.62340172322676    1.19618254636112    5.85775873392255
H        -0.26554069048963    0.61582915935754    6.05497415825441
C        -1.76353829828680    3.36658380402539    2.34800739458895
H        -1.75756481684041    2.68255259449348    1.51033630167918
C         0.91847058322751    2.16876725291153   -0.15403575589517
H         1.48302721787411    2.67457890046593   -0.93326213251446
H         0.48937730337296    2.93799379719621    0.49511254178117
H         0.10010027133286    1.62819504136762   -0.62991071488345
C         2.82869656468655    2.79274274354809    5.35997480372966
C        -0.34055949172526    1.70145121959393    3.58844626614133
H         0.12313305673445    1.54317180821969    2.61122054832795
C        -1.26750294468277    0.53585239813743    3.84268479319677
C         2.30748523852738    7.83643243243582    5.06725668270267
H         1.91795335693888    8.84268967056071    5.04291803406611
C        -2.54013580477478    5.40446960398568    3.35760066199121
H        -3.09993838008247    6.32514706153740    3.29379632399938
C        -0.82440612400906   -0.74604489742008    3.53419484523267
H         0.16297760465910   -0.87870836232360    3.11470920946172
C         3.58887861187097    7.57270164048924    4.60934928130657
H         4.20280985060960    8.37777659640295    4.23379743412605
C         1.82038300022977    1.21997914043025    0.63543719599641
H         1.17339299811759    0.61610638729325    1.28137382265714
C         2.03259038024481    5.50255838114121    5.59011123217837
H         1.45658693359930    4.71380690023195    6.05647631509738
C         4.08841825034274    6.28260307424154    4.63625388925342
H         5.10047614537973    6.09231177275643    4.30692840690374
C         3.91258150062843    3.83048433104050    5.15249602270174
H         4.36232818755204    3.64513281236021    4.17196592476852
C        -1.15807092967251    3.88519518547712    4.61163964390608
H        -0.69573956297169    3.59833416867869    5.54652911535184
C        -2.48623972791159    4.54606382425970    2.27013675443108
H        -3.01275832898373    4.79462884325661    1.36043254347896
C        -3.33666120070229   -0.40871491394835    4.62931670648433
H        -4.31827059448709   -0.27129314021904    5.05916856094952
C         1.53480903654270    6.80172761474653    5.56714468022776
H         0.55058833511208    7.00498166445272    5.96588367759477
C        -2.88835526095724   -1.68005543320630    4.31813098327647
H        -3.51766338762772   -2.53815011027644    4.50208092706319
C         1.42797889805110    0.67085195128438    8.18917114755646
H         2.29876919726487    0.92997233159746    8.80217698408204
C         0.17136175343491    1.16294698789853    8.91088862689351
H         0.19852611376810    2.24486218208584    9.02557820589931
H         0.10373913667310    0.71316611801714    9.89907244278010
H        -0.72317498495461    0.89771128966474    8.35211321796653
C         2.48123713495604    0.23086342873087   -0.32352324435546
H         1.72005475589596   -0.27163939115754   -0.92134278172724
H         3.03394975118041   -0.53054743245921    0.21975964031489
H         3.16639948847470    0.72672420884946   -1.00387858363438
C         1.39460697248730   -0.84924155692886    8.02080913921829
H         1.33306578686767   -1.33537170150640    8.99217358509272
H         2.29557188304095   -1.19273728519873    7.51718066379451
H         0.53440496021584   -1.15289142294536    7.42864634993076
C        -1.87957222680239    5.06894888324645    4.52814297260160
H        -1.94422795382838    5.71805849543366    5.38992163692440
C         5.01092965230231    3.75723375456438    6.18658116336742
C         4.93355084582241    4.47468418126133    7.37471596343749
H         4.07630672783410    5.10546752067273    7.56352676402192
C         4.22716796131608    1.03100402286179    2.69731524544735
H         4.59859327941080    1.55587745582806    3.58093157102142
C         5.94341065909216    4.38756610293068    8.31638185957377
H         5.86945133945469    4.95175802032197    9.23483370941531
C         5.44240748740690    0.62854535226699    1.86740834468395
H         6.07447790955857   -0.05625153293863    2.43363328521175
H         6.04137449733743    1.49772518582125    1.60662921542964
H         5.14555536498064    0.12870529795534    0.94946091937660
C         7.04357497108816    3.58007597704676    8.08529134654664
H         7.83224850199079    3.51359463068341    8.82002512746201
C         3.50839883654783   -0.21243526714305    3.21434031118227
H         3.12415015670961   -0.81471645899876    2.39547609222194
H         2.67874274351379    0.06630514344118    3.85874557500004
H         4.19272999736262   -0.83168599218298    3.79418387534539
C         4.46960326052082    3.17776883806665   -0.54379734801356
H         4.91800296823493    4.02742655554975   -1.05988303421080
H         3.74710890588965    2.73020884257220   -1.21902034715183
H         5.25380350965072    2.45251229115419   -0.34618418210322
C         7.12761338569325    2.85948345258266    6.90642504543850
H         7.98402135923339    2.22816591348018    6.71781301556356
C         6.11883648944304    2.94971535780918    5.96423566086465
H         6.19326988798149    2.38508632660447    5.04534494284169
C         4.79863540709196    4.47985722230060    1.54806844055306
H         5.60587357625250    3.86553733236257    1.94173622623250
H         4.29408754852385    4.97398621549850    2.37709277272221
H         5.23899516184133    5.25466267989143    0.92004822777290
N         2.13116423792675    3.07639546750648    3.03436265269815

