94
CSD_code = HUGFEW | q = 0 | S = 0 | Stoichiometry = C42H48HgINSi | MND = 2
Hg        9.64513975363775   10.29090513531113    8.36708569585459
I         9.66598672397398   11.94213237713972    6.33936684635358
Si        7.60321051150873    9.52665275009895   10.98059455992823
C        10.10697592690201    8.41379489150285   10.63380512077946
C        11.08138936003934    6.19944875867918   10.66272844160342
H        11.09804049556634    5.18739364183285   10.28362999300192
C        11.10297019125224    8.82734613974424   11.53802197389911
N         9.13071489899874    9.32292989256523   10.18076005006766
C        10.15398119113897    7.09548492657000   10.15237712555632
C        11.98829841164106    6.57592527747519   11.63926595971341
C        12.00640526895216    7.90523027308884   12.03788241658347
H        12.75595022550331    8.22837617821864   12.74572514159012
C        11.24407823550107   10.30183910468790   11.85540878624769
H        10.24013603379585   10.69494082649732   12.04438235179146
C         9.25742181027919    6.70086328786120    8.99773276462427
H         8.27045399837125    7.12895304284680    9.19195460845064
C        12.08381434272451   10.56612168362735   13.08269135863867
C         9.08558538189133    5.20390386298893    8.88689854879962
C        13.60935570228091   11.02235548426997   15.37066750668767
H        14.20043765568686   11.20040792558644   16.25678385962360
C        13.46151492089477   10.72962237594075   12.99353461941516
H        13.94451264998706   10.67856952301596   12.02791518908336
C        14.21829233650080   10.95698278315638   14.12918878662350
H        15.28791698613390   11.08283644336558   14.04384889322497
C         9.75808812287375    7.31272395558240    7.70612218911661
C        11.10599688829246    7.62255892160922    7.50736289795300
H        11.82096976997614    7.39885309383623    8.28761782984439
C        11.80003010151894   11.05623274346770   10.66297601889853
C        12.23824144469661   10.85963390371558   15.46929656595424
H        11.75518663488515   10.91061692237305   16.43425068223704
C        11.48229978801558   10.63482623560415   14.33276998163024
H        10.41203015010072   10.50993969516219   14.41864971873386
C         8.73285615176650    2.44219637927703    8.77692897074633
H         8.59571877506327    1.37193485616730    8.73263552859630
C        12.96086468848739    5.59626916228184   12.22238630045631
H        12.88135816083373    4.63028810930347   11.72982216859260
H        12.76386571501373    5.46022703219717   13.28543544973834
H        13.98234246854162    5.96060802803182   12.11945123422546
C         9.73894843301134    4.44809246326011    7.92298352568337
H        10.39179274695000    4.93124251675326    7.21012296932495
C         8.86590735100019    7.52423793543403    6.65186293630814
H         7.82915525960096    7.24118797322345    6.77267216626964
C         8.08139207595279    3.18838845558900    9.74520422844428
H         7.43456875019959    2.70113398809122   10.46009777477811
C        12.42336078087519   10.41146225127756    9.59193622856691
H        12.57590237713795    9.34061363109278    9.63196438127146
C         8.25620554138585    4.55834501244452    9.79778734712053
H         7.75224980615813    5.13754686133548   10.55878838332958
C         9.56127809749239    3.07587924238670    7.86795265848810
H        10.07508215769051    2.50071865913071    7.11139558314641
C         7.14831118663324   11.37464201088216   10.62906827143694
H         7.20336923881928   11.50320727809536    9.53454763133870
C         6.21581835882413    8.41835382264631   10.18873897845035
H         6.60951487665849    7.39683897133766   10.14309313549004
C        11.73291353776107   12.44870830193470   10.64905803736665
H        11.29367130297420   12.96469526613110   11.49153845422818
C         7.86343950266753    9.04334825390119   12.82759694017321
H         8.85665835819728    9.39694557658286   13.11496632587185
C        11.54092379481229    8.14205045683843    6.29499023594111
H        12.59028281498514    8.35700860515388    6.15069398153229
C        12.24697444894077   13.17540114967653    9.58990630213281
H        12.18293967773824   14.25332600439050    9.59785846901108
C        10.64199105114550    8.35593344277802    5.26295896218974
H        10.98112173331959    8.76042078152706    4.32148313909591
C         5.93033437624046    8.86101629263719    8.75359470974042
H         5.33687127602300    8.11610722169000    8.22315979698724
H         6.85860429434218    9.01930185119797    8.19643239296905
H         5.37811017254433    9.79739369650394    8.74391384515514
C         9.30427937758174    8.03871683442562    5.44259747105248
H         8.60182996150751    8.18825924414333    4.63592255427720
C         5.73896667883082   11.77683923925908   11.04802466075182
H         5.58468907790629   11.61500307086186   12.11103293912252
H         4.98938960115870   11.21430342231403   10.50044345670094
H         5.57223905067705   12.83432583367591   10.84003127311970
C        12.84708916306021   12.52639852731534    8.52222400331885
H        13.24393621909815   13.09401604551603    7.69443164947460
C         8.14913500411306   12.35572359539327   11.23287138408789
H         7.85221343524248   13.38392241199350   11.02441785532119
H         9.13753183228340   12.20373840561091   10.80123834480502
H         8.21319634839516   12.23563644868205   12.31248010551239
C         4.90005795047871    8.31650360661621   10.95912150306138
H         4.42870449799819    9.28667640611403   11.08078220420515
H         5.05662963510721    7.88936773483181   11.94568118180708
H         4.20431702626227    7.67080471719708   10.42216469601771
C         6.86310251723089    9.67387199484188   13.79150825652611
H         5.84401398662090    9.38950683853041   13.54410154782533
H         6.93179109225485   10.75877161748990   13.76909847932742
H         7.06524917804398    9.34624712736908   14.81172093907048
C        12.94423119959762   11.14513947818543    8.53026605226428
H        13.44897035388067   10.63350115884895    7.72242721743581
C         7.88502349622860    7.52781118999055   13.00869815935670
H         8.12577617979001    7.27342375205664   14.04087358203576
H         8.63740318680169    7.07703046248909   12.36669596813909
H         6.91960869653004    7.08848723766342   12.77232058868521

