113
CSD_code = HUGQIL | q = 0 | S = 0 | Stoichiometry = C42H66FeN4 | MND = 4
Fe        2.57941989587644    8.78062856808835    3.46409313424540
N         2.68779037761027   11.66746682573355    4.63938306590763
N         1.00973313055236   11.59631300205876    3.29255113518355
N         3.95444040851225    9.52416815126496    0.83038550177151
N         3.37773505028295    7.45180386437676    1.07761061817913
C         2.09918102864452   10.88903888222839    3.69262588594465
C         3.32345522057547    8.67529562207059    1.68934425405353
C         4.43400301647376    8.35329418167735    3.85525931798976
C         0.77922967390227    8.53550320003757    4.16183497947949
C         1.97039195655563   12.82831994192604    4.84132721202739
C         0.91126732529688   12.78556603670230    3.98603439639589
C         2.32553045500032   13.90284743586846    5.80945939616649
H         1.44864015551472   14.50972868168554    6.02320415129995
H         3.09700442077349   14.55908386800976    5.40508382703915
H         2.68211607365445   13.48675483486443    6.74748486767238
C        -0.13768098151580   13.82283888143953    3.78505541886501
H        -0.11981510683660   14.52580407129572    4.61430690262165
H        -1.12982131630681   13.38301042273988    3.73778117213571
H         0.03860507456895   14.38565814876481    2.86783758552541
C         3.92453069947297   11.25961871750774    5.27329110340552
H         4.23996889138496   10.39226870032182    4.67459696466867
C         5.01533466424571   12.32674945774332    5.19632288934840
H         5.00383381542341   12.80801541041949    4.22201220127609
H         5.98355881480418   11.85194539788032    5.33227625198971
H         4.90211355332784   13.08476109767577    5.96622297362564
C         3.70255468286142   10.77423071227749    6.70460166360615
H         3.45527748912940   11.58905962955789    7.38145304858010
H         4.60551356623564   10.28822532755691    7.06400189219076
H         2.89392289084822   10.04874733969427    6.71912552550995
C         0.12504364751043   11.08872773289739    2.26393161435034
H         0.61209826473362   10.15373190206792    1.95740548505574
C         0.03979445121924   12.02595633253746    1.05879742760995
H        -0.62188161548054   12.86570309399425    1.25245002459023
H        -0.35276755485548   11.48023789536468    0.20486177497390
H         1.02402335175091   12.40680791069812    0.80503935358237
C        -1.26891308563825   10.75691327495118    2.79893431916862
H        -1.19316302212735   10.25892987462395    3.76036269452479
H        -1.76940141311313   10.08508000517559    2.10722923721995
H        -1.88449268566614   11.64636311991234    2.90802723280937
C         4.40416355544377    8.83999555675831   -0.28648942478554
C         4.03831602135435    7.53917859399230   -0.13148468694279
C         5.14094833466499    9.44371726159619   -1.43246106071210
H         5.68171830042069    8.66665936273151   -1.96797665677731
H         5.86411769977476   10.18143266073253   -1.09646582454018
H         4.45833333148352    9.92143353310233   -2.13608798160460
C         4.22164296900412    6.41766282904077   -1.09417322687418
H         4.94022834511837    6.70327616564062   -1.85808714159867
H         3.28199558787912    6.17837559437315   -1.59293333552329
H         4.58966126377998    5.52030420855943   -0.60378919900545
C         4.06813714147819   10.94064578747683    1.10471782727159
H         3.38726286172595   11.08653676312449    1.95582655408105
C         3.59833016507538   11.80397046868058   -0.06790639380672
H         4.36991364168005   11.91924506000099   -0.82326188150976
H         3.34477238073454   12.79663106313099    0.29726723468799
H         2.71697636661006   11.36660643267060   -0.52980187831507
C         5.47336958964296   11.33845649061236    1.55733939164163
H         5.71853669802962   10.82698844082046    2.48221993927261
H         5.50685546714562   12.41121751070488    1.73033928036845
H         6.22411853105934   11.09196549854919    0.81048405697276
C         2.88608803897691    6.26282824580279    1.75005554327708
H         2.39819576243217    6.64754615353046    2.66238248144639
C         4.02335102009826    5.34384166075397    2.19672284248193
H         4.52117411493068    4.86889585098775    1.35565610192820
H         3.62410725708535    4.56379796540367    2.83974902385909
H         4.75610315658230    5.91600404675764    2.76045958720754
C         1.83591000145140    5.51641167149147    0.92883798072579
H         1.14430332614414    6.21931107957203    0.47024432889793
H         1.27012666318740    4.85551943671496    1.58033865500301
H         2.29221380513118    4.91437369665922    0.14807342786969
C         4.17487366004415    7.80905282281245    5.11957025698262
H         3.13584649161781    7.82314712570571    5.48490636247326
C         5.15427744880421    7.26814161956514    5.92034958223623
H         4.88593626615318    6.87297079955006    6.89105571121525
C         6.48329439298843    7.22881839643550    5.48898323490131
C         6.75363650782981    7.73047860083416    4.22447239911970
H         7.75839197977277    7.70758352397369    3.82936589017264
C         5.75559904102316    8.27030179242661    3.42366214889002
H         6.03191597628578    8.61998622109535    2.43747733587970
C         7.54799711836968    6.64569602379634    6.40532621226379
C         7.20496807088776    5.18130111661036    6.71376298492929
H         6.24291970465783    5.09826851894843    7.21207181644063
H         7.96315830848832    4.74285273048603    7.36039216410541
H         7.16090058200983    4.60449184737407    5.79176151684098
C         8.94792344351235    6.68486708189506    5.78602190729401
H         8.98653258832487    6.09867468753993    4.87052502317375
H         9.66821486165339    6.26414094224657    6.48577912788612
H         9.24911563238737    7.70681112077978    5.56613564838176
C         7.58345137286697    7.45420546143022    7.71049902715576
H         7.81607645001697    8.49651334998400    7.49939345839171
H         8.34504447042567    7.05906646929275    8.38054370596963
H         6.62615373924154    7.41672654799334    8.22342847475070
C        -0.02092658687333    7.80181160351311    3.27926415453752
H         0.30831086052121    7.66839380810957    2.25249771458776
C        -1.24353285376472    7.26432555834548    3.64245692200463
H        -1.80066900354711    6.71136899099942    2.90039318922784
C        -1.75089957241856    7.43945261858685    4.92446155205878
C        -0.97536493079792    8.17665450164392    5.81431253636827
H        -1.32826316031725    8.35284758177301    6.82253140286421
C         0.24769714515110    8.70648797357724    5.44193076805712
H         0.79476692062939    9.29039088125621    6.17619902041357
C        -3.09739173223518    6.89044648725145    5.37188694214040
C        -2.89347508818107    5.96308786801716    6.57815332999531
H        -2.23607750053188    5.13811181645463    6.30981443037774
H        -3.84709268535886    5.55296844322201    6.90668403519437
H        -2.44622074996750    6.49517167362129    7.41343883637142
C        -3.80405680905754    6.09014412599095    4.27409786505497
H        -3.20257862890473    5.23847347971226    3.96368620112305
H        -4.01068197400495    6.71388398047491    3.40706678107556
H        -4.75341564782991    5.71311489651160    4.65126313177589
C        -4.00779951579784    8.06187940790357    5.76783447343141
H        -4.98319872227519    7.69502586003831    6.08316940828975
H        -4.14655248898053    8.73141186455333    4.92065761847840
H        -3.57795204653294    8.63432313468680    6.58561363189701

