95
CSD_code = HUGQEH | q = 0 | S = 0 | Stoichiometry = C36H54FeN4 | MND = 4
Fe        9.32679916335631   14.60950966850813    3.22610956553473
N         8.13645230287933   16.38057762885001    5.23043661677293
N        10.11625060303651   17.11090014106567    4.76498752406389
N         8.91133654459901   16.79840646908025    1.15722125791118
N        10.74256120420843   15.67944459600828    0.90225803328678
C         9.20858223911180   16.15626254668501    4.42300350943586
C         9.66300594328506   15.81314887556960    1.71990432945286
C         8.09095109442513   13.85122301842113    1.93738122275706
C        10.44721901688840   13.96566640806566    4.67436468113319
C         8.37702033944560   17.44119535168635    6.08065769784730
C         9.61770240543304   17.91075275713215    5.77869600503685
C         7.42781394564104   17.94670125407998    7.11145940385903
H         6.99082600845038   17.12716000862083    7.67656635571487
H         6.62069568545784   18.52278137717493    6.65774953142271
H         7.95486809815903   18.59089819524655    7.81041550507303
C        10.33033970063179   19.05648735728517    6.41241938548855
H         9.60837075615405   19.72150298975426    6.88061421828560
H        10.88938905496341   19.63288876096881    5.68072521192423
H        11.02278578647569   18.71168316109112    7.18155670688866
C         6.99175245439080   15.49612077596257    5.16629975932157
H         7.13519626908898   14.95946905806712    4.21560884081683
C         5.65547733173712   16.23199759601448    5.09793453893221
H         5.33002693419394   16.57866956115926    6.07434424177937
H         4.89802271300362   15.55524811111846    4.71087286659206
H         5.72824303573069   17.08272448684221    4.42531916229793
C         7.03174063969085   14.46799439486515    6.29690131049921
H         7.99427752749006   13.96035830556221    6.28692125295240
H         6.24483511857362   13.73228304763937    6.15407763690090
H         6.89422245964764   14.93500636059331    7.26940405789328
C        11.41801113791265   17.16730660386758    4.13336507129775
H        11.45156388768952   16.23961658508917    3.54993243744674
C        12.57430314434701   17.13991304673008    5.13117229081842
H        12.69921477790425   18.08992669190432    5.64192814824493
H        13.49605189750681   16.91778093377485    4.59916579457998
H        12.41173750371336   16.35530726242300    5.86429312102243
C        11.53616851843123   18.34780825956133    3.16710584405351
H        10.76644215188173   18.28446388622312    2.40448977426728
H        12.50769899521249   18.32293613855018    2.68000015343876
H        11.44116043701288   19.30227501097537    3.67860825069282
C         9.51119425071788   17.26188434129724   -0.00102571991373
C        10.65668799379073   16.54715293856254   -0.16805226249270
C         8.97565426903143   18.33399308539015   -0.88752639874480
H         9.78323172558574   18.75204900138931   -1.48392241012221
H         8.53201839350589   19.14229503487895   -0.31301748900145
H         8.21997045987723   17.93989222155884   -1.56836739711156
C        11.65539051515518   16.65176419414775   -1.26828433895790
H        11.22713973113657   17.20364982980996   -2.10099790352884
H        11.94176746278214   15.66767567206494   -1.63127462057190
H        12.55430500824101   17.17362239048135   -0.93853509620946
C         7.64735945027131   17.19968193893317    1.73868181562825
H         7.48068702194816   16.44404327982638    2.51537854845431
C         7.73522313899628   18.57083156170737    2.41220336018364
H         8.50343382453584   18.56198553386590    3.17894207686281
H         6.78301834871495   18.80690645987760    2.88046782067617
H         7.96362324016959   19.35953169007609    1.69986691828922
C         6.48073961641173   17.13019789936622    0.75514830507333
H         6.49921627041876   17.94468887309013    0.03749003107879
H         5.54685515926799   17.18797356057410    1.30877190093979
H         6.49948770206734   16.18240699874049    0.22527007747259
C        11.73235292890344   14.66017872984565    1.18205143611621
H        11.52323804800006   14.37936071617616    2.22610645949729
C        11.50630019985773   13.42564825055421    0.30937889975095
H        10.47458078347114   13.09568944342675    0.41458042234225
H        12.16636889157731   12.62319090828704    0.62759969081349
H        11.69988937864009   13.63528710961412   -0.74009037301718
C        13.17039045801375   15.16836623892247    1.10736871238059
H        13.52872533477356   15.22964410915702    0.08397262734043
H        13.81667557330864   14.48343320881821    1.65032855825723
H        13.24769187532278   16.14896910273872    1.56987033056559
C         7.68583673895128   13.84880479236848    0.60383176019893
H         8.15240971775745   14.51930376430804   -0.10831214252473
C         6.69752621971133   12.99022187957661    0.14544975270341
H         6.40984343435632   13.01768254972660   -0.89920914316817
C         6.07182957993814   12.09508698247117    0.99855708276572
C         6.48074382025614   12.06064703917747    2.33021177036642
H         6.02039494877129   11.35406599878250    3.01018079647410
C         7.47089209249346   12.91310110294203    2.77031449050008
H         7.80488745873911   12.84525398729654    3.81250096343909
C         4.99006397078939   11.17318860694844    0.51586395336338
H         4.83837084938187   11.27913148727494   -0.55623463590017
H         4.04808413696881   11.39240884149575    1.02034943865057
H         5.24639692228450   10.13522232227062    0.72895524807386
C        10.89793551982616   12.78094643617556    4.08473142158599
H        10.54054554508413   12.53437104363450    3.07802687798272
C        11.75182739470952   11.90318217464423    4.72242843526672
H        12.08310867719102   11.00106620821579    4.22229353334580
C        12.18375227826625   12.17001080059229    6.01719319645785
C        11.71846891231989   13.32112906960423    6.63865669637612
H        12.02783676337198   13.53281166769657    7.65559520662675
C        10.87015447467458   14.19831262720482    5.98338709491429
H        10.52585413758687   15.07565278195987    6.51829508713671
C        13.10813074443497   11.23316724849423    6.73915470912951
H        12.59349375478644   10.75618183236028    7.57450285209195
H        13.96529407520649   11.77268420974723    7.14203982901776
H        13.47048394992458   10.45447353953359    6.07128042734806

