126
CSD_code = HUGRAE | q = 0 | S = 0 | Stoichiometry = C51H64CrN5P5 | MND = 6
Cr        1.17559915891724   17.73158137050908    0.21552248175631
N        -1.37915968850601   19.73404649045282    2.20874684287801
N         1.68004178476040   17.33602000303483    4.09317065612492
N        -1.64807427138429   15.27556416912928    1.65529288683584
N         0.94885270880998   19.17999269415533   -0.74224071673257
N         0.76007699866243   20.14560756808017   -1.31675681809295
P        -1.06621140210241   17.70532762930753    0.41279547422040
P         1.23280716919320   19.10285609294654    2.00497617194034
P         1.13794214377260   16.01398853094434    1.69117499173958
P         3.45259873852901   17.78126839760775   -0.16600498322549
P         1.21914758163228   16.55836499545861   -1.77302306830684
C        -2.76841093448513   16.13102548906238   -1.18419614505088
H        -2.64737281586091   15.37291232468617   -0.42256929723018
C        -3.53432576517103   15.87655713701919   -2.30744147562252
H        -4.01146417166961   14.91331895167608   -2.42619857096888
C        -3.69553397705152   16.85127754595269   -3.27888067725180
H        -4.30026571341903   16.65271554213688   -4.15186584158247
C        -3.06883279707982   18.07874793034513   -3.13130332844190
H        -3.17972737424088   18.83662349622912   -3.89413749596961
C        -2.29303025452493   18.33425040116001   -2.01521554471531
H        -1.77570453222614   19.27967608166520   -1.92319592711000
C        -2.15574349791381   17.37184622872414   -1.01500467266424
C        -1.87241152908765   19.30809319722286    0.91484283985882
H        -1.67997336171404   20.06366402490239    0.13329800176579
H        -2.95580159715625   19.13240995760309    0.96120894452223
C        -2.34245724853264   20.56678640492235    2.93151842156611
H        -3.31542775773763   20.06738390334877    2.88388808241416
H        -2.44313999923861   21.56231371150223    2.46722907997451
C        -1.43218359126502   21.89808173175394    4.87388078798633
H        -1.37393352118170   22.76559077164269    4.23084885089840
C        -1.01399273453721   21.99052286363995    6.19060152283420
H        -0.62814107798986   22.92653599594499    6.56717954896131
C        -1.08618065853678   20.88594339996923    7.02089894111534
H        -0.75963411084195   20.95731294529001    8.04852234177507
C        -1.58449202789880   19.68997874748212    6.53034663601912
H        -1.64224848143600   18.82469354781865    7.17583615866615
C        -2.00571844467308   19.60138670025615    5.21631513287209
H        -2.39904133120603   18.67009059425429    4.83469126208750
C        -1.93115878699773   20.70351964132637    4.37246806477627
C        -0.09399222018008   20.39611159831892    2.08240309364110
H         0.10182485996957   21.00905660666399    2.97184643190569
H        -0.04969088554183   21.04377372519289    1.19071980974808
C         2.80553837985786   21.25905334175054    1.22211365288611
H         2.07136590714259   21.38059226123181    0.43670320033069
C         3.89347537456165   22.11045312676078    1.28474793340832
H         3.99539134064286   22.90676956979041    0.56053294608339
C         4.85318228774037   21.94648646665926    2.27164115261354
H         5.69807665515614   22.61796416384447    2.32334167564354
C         4.73111586394787   20.90905839072410    3.18118238624346
H         5.48396633189422   20.76134506380295    3.94315893782742
C         3.64601453386267   20.05292927766061    3.11980181043731
H         3.57053909839378   19.23089326445128    3.81587738114516
C         2.65458874962075   20.23711851362663    2.15898331607922
C         1.01784271175368   18.58236780912297    3.76455491167579
H         1.41046682559542   19.39129450647537    4.39237937023595
H        -0.07341498187170   18.51442558051038    3.94243960118288
C         1.79407305307839   17.18583017506883    5.54824517239199
H         2.15044677606889   16.17012991418931    5.74774617914214
H         0.80813695808519   17.30440196399520    6.03180215927106
C         4.14094597111651   17.95838221112363    5.95534160321206
H         4.48135769326941   17.06794584200128    5.44615777814547
C         5.05790066217560   18.87612322119573    6.43450641508620
H         6.11569976349337   18.69842024461441    6.30382994339477
C         4.62117110011449   20.02159934739754    7.07912734890350
H         5.33610510472750   20.74074910875904    7.45117630312907
C         3.26516944278252   20.24026722524072    7.24673355610969
H         2.91804413313404   21.13148668031496    7.74897618671782
C         2.34819928728944   19.31949981663067    6.76962233924015
H         1.28966258964400   19.49523087803374    6.90425190891760
C         2.77641602152804   18.17106224944407    6.11665186160335
C         0.93551724658152   16.22840400536590    3.53531639160539
H        -0.13937248181504   16.32307185024576    3.76921300138518
H         1.28288249369575   15.28769923204382    3.98434205133407
C         2.59712798607636   13.66866792739959    0.97600349467387
H         1.78960463845572   13.40774999739483    0.30691791145037
C         3.71882284429597   12.86026894785881    1.03517641551338
H         3.77808170902464   11.97910887394173    0.41144588894416
C         4.76421265896817   13.17465440080512    1.88749246036381
H         5.63823059449425   12.54136176326616    1.93012599582239
C         4.68408751522615   14.30758383665388    2.68281967973066
H         5.50061694792873   14.55764785548084    3.34672261974950
C         3.56586637338830   15.11717054663843    2.62491525482511
H         3.49047617386975   16.00841934931820    3.23560725461144
C         2.49976352438375   14.79961857516311    1.78204169313571
C        -0.28474251910518   14.82235408033478    1.47166750435661
H        -0.18047175382814   14.49867566769607    0.42226875564064
H        -0.08135946806868   13.95670563935273    2.11641885762171
C        -2.45640032916733   14.48629952729666    2.57477442632821
H        -2.29789807771793   13.43202858309170    2.32855216874323
H        -3.50457237010595   14.72866029209523    2.36299317007708
C        -1.23837912473674   13.95672488261488    4.72356805946168
H        -0.74886965906948   13.13273589782547    4.22277488834918
C        -0.93080687519175   14.23095099775961    6.04446163787145
H        -0.19756934678419   13.62908934442833    6.56188658111829
C        -1.56572516542967   15.26857954240271    6.70541298510227
H        -1.32721371580475   15.48033351533641    7.73768593882641
C        -2.52149409822162   16.01964315694993    6.04280292854063
H        -3.04396160940851   16.81139869829088    6.56069673090171
C        -2.81946270756421   15.75091584331828    4.71850314730157
H        -3.57492092301410   16.33355257193191    4.20867949448192
C        -2.17428318159450   14.72352650591621    4.03802200115389
C        -1.91318450799274   16.68993887168430    1.70747710443612
H        -1.61301933814328   17.17718742508973    2.65581500678061
H        -2.99893809681297   16.83114421825491    1.58626475440723
C         4.89842205052790   17.76649520001054    0.96687889609982
H         5.81962047909320   17.78732748884173    0.38179709862910
H         4.86748339191945   16.86228201978965    1.57080923889861
H         4.85862329775335   18.63762882019692    1.61843726614163
C         4.01853566733256   19.12286338450909   -1.28389368460645
H         4.99535707316607   18.88442994718421   -1.70903604071267
H         4.08346917789023   20.03991440074080   -0.69686106967103
H         3.28554148958851   19.27045003570190   -2.07678438147829
C         3.92035249454881   16.30154937269793   -1.17828906668940
H         4.96339429169145   16.38039297202782   -1.50537560304793
H         3.82232651092938   15.42696325221716   -0.52624253248715
C         2.96472157172476   16.20682581386144   -2.35057924163126
H         3.00747867348764   15.22489795966466   -2.83248541329635
H         3.21767704134322   16.97224145948141   -3.09132841091740
C         0.63152642148982   17.41645583072679   -3.28916027771921
H         1.01779921845484   16.91104507904969   -4.17627299310734
H         0.97099939058277   18.45172887952559   -3.27207076537472
H        -0.45729465722331   17.40450156498630   -3.30230194692402
C         0.46094543161707   14.91805176840207   -2.16040273221126
H         0.58793603404816   14.69197096650786   -3.22028456675689
H        -0.60269306623463   14.95753759657077   -1.92404656576673
H         0.94154044177594   14.14227441026946   -1.56618938901469

