37
CSD_code = HUGSEI | q = 0 | S = 0 | Stoichiometry = C11H19MoNO3S2 | MND = 6
Mo       -0.26624901956510    2.53668054028504    1.03746651813485
C        -1.11693588023362    5.21805934540334    3.93762592340067
H        -0.71223642526198    6.05817204580455    4.49764221230077
H        -2.18942680186329    5.16155501980547    4.11048511512740
H        -0.94716071508303    5.39008908752265    2.87424370254497
C        -0.44469605646589    3.92693565903244    4.36210388079817
H        -0.64378131970644    3.69610282384740    5.41081804444135
H         0.63086334468286    3.98338125899510    4.18778713718906
S        -1.15440673843869    2.57029677937293    3.36656426062845
C        -0.17973023729377    1.13843019776387    3.92690387478133
H        -0.23647467462933    1.08147111487646    5.01533964824682
H        -0.69382641055325    0.27843641137925    3.49091790797642
C         1.26622356405531    1.20161845666474    3.46219608278201
H         1.74061341943595    2.07359726791953    3.92406216947199
H         1.80034029498366    0.30535551392980    3.82098823755040
N         1.35894829715663    1.32691777948174    2.01244460031980
H         1.17685071928365    0.41819868419314    1.59495413324603
C         2.66222426516763    1.79087795326309    1.55869649410639
H         2.69906204354024    1.66091750026835    0.47286165428589
H         3.48017644934993    1.19968613051841    2.00809291858096
C         2.89364592641138    3.26224966953982    1.89380251756731
H         3.75032393187514    3.64833015655693    1.34290132245941
H         3.08476638564619    3.40518335823135    2.95957629641634
S         1.45731853389786    4.32606428311382    1.49040029565166
C         2.00766371857623    4.99274541131113   -0.11273851065951
H         2.86726947140948    5.63322144738360    0.10115193125673
H         2.31076552138071    4.15424897594649   -0.74048599769252
C         0.88965715528442    5.77907494194165   -0.76340402422984
H         1.23026062577013    6.19143724006850   -1.71048501131819
H         0.57048038622186    6.59634906146871   -0.11956159865893
H         0.03778309203710    5.12677670220940   -0.95176828988567
C        -1.44261954829711    1.05380549621831    0.69577579373159
O        -2.12697395429232    0.17458226866664    0.44530354885987
C        -1.65794693202127    3.65588912525028    0.31733374285007
O        -2.49668367091199    4.29893092546521   -0.10916947305166
C         0.42282721999358    2.29249658162860   -0.73954336627265
O         0.78218401845790    2.09293478467667   -1.80848369293326

