67
CSD_code = HUGVAI | q = 0 | S = 0 | Stoichiometry = C31H28FeN3O2PS | MND = 6
Fe        7.24178336796805    3.79941449746498    2.59660870921874
P         6.76879651986723    1.85750373373001    3.47086896342839
S         8.66647191342098    5.06254387637505    4.13234409977379
O         9.76917293062276    2.92892901461094    1.50229057122914
O         6.57140359296442    2.91955475226201    0.02753558902740
N         4.53881347803323    4.58547165306893    2.39776919721332
N         5.52478116128137    4.56731298188289    3.30514599889425
N         7.66780525257430    5.60885899754891    1.85980819723590
C         8.74186406779752    3.21406575251633    1.91732517824618
C         6.20697715977225    3.41935188065619    1.06740905123067
C         4.76845356678314    4.00180932138741    1.11508752851478
H         4.66099481213235    4.74866966563713    0.32127010260486
H         4.05601258031906    3.19135107227340    0.92666835750137
C         2.16996948436876    5.24857553052545    2.10230753635218
H         2.34032704088918    5.83344575082007    1.19854322205707
H         1.39739009166649    5.73233334844117    2.69275826250271
H         1.81905039859325    4.26037658389943    1.80325634566162
C         3.41705357138377    5.13282043810280    2.89713838318611
C         3.70659246424630    5.49090993171409    4.19862477550527
H         3.04873741563688    5.95709448068925    4.90319403618083
C         5.03732350430265    5.11255591267983    4.41649972556747
C         5.81131713349002    5.23606420895477    5.67647623195976
H         6.45838927387237    4.37120571160825    5.80889630052071
H         5.13346431020775    5.32145886220805    6.52247734966594
H         6.44962952414233    6.11814810751171    5.65091220655702
C         7.42107617382240    6.32066030286565    0.76698070214820
H         6.87376574726499    5.81581069537261   -0.01688952950395
C         7.85342368805492    7.62255504591775    0.61968918857565
H         7.63590659411422    8.16720589599982   -0.28462194007099
C         8.57954126299693    8.21178903220138    1.65737465354574
H         8.92505907811020    9.23113848382378    1.56661654685104
C         8.85948623134006    7.47871197489357    2.78532101018401
H         9.42885046070469    7.87759722431685    3.60946306735718
C         8.39627659327227    6.15816527488469    2.85602556845528
C         5.00368024086148    1.42291759838940    3.25956011059909
C         4.57663679731590    0.66560655398298    2.17329697902325
H         5.30558248359113    0.22638596947389    1.50736941700680
C         3.22486055406340    0.47998615933824    1.94083788722659
H         2.90274491723781   -0.11281130208973    1.09698532331074
C         2.28597352707119    1.05778646193293    2.78003154534685
H         1.23143101808138    0.91691244668399    2.59212532376674
C         2.70355142776313    1.81588305190186    3.86247278832670
H         1.97595224959371    2.26946618706084    4.52009287341125
C         4.05276243997200    1.99830068454389    4.10081028645059
H         4.37629492055567    2.59037771157149    4.94563770102295
C         7.02523340443828    1.58182497356416    5.26221843108371
C         6.18498065439215    0.80934198332487    6.06012272869166
H         5.30654180845582    0.34418862808337    5.63504474907293
C         6.47954350777909    0.62653027127241    7.39960547700554
H         5.82133727156643    0.02939822607010    8.01452446082288
C         7.61420596970445    1.19905664654306    7.95157203126092
H         7.83580949495777    1.05500102134096    8.99884010787402
C         8.46536939910308    1.94947622797645    7.15704823469279
H         9.35549727767970    2.39121546212861    7.57901511120649
C         8.17296925867037    2.13795520689652    5.81865759747477
H         8.82906864189750    2.72728771636078    5.19351319838125
C         7.58697975854968    0.36672333183327    2.79451457986466
C         7.90722403506642   -0.73428337552784    3.58351713919496
H         7.68742707606020   -0.73010330544944    4.64111617557943
C         8.51871685440899   -1.84008770514584    3.01967195937488
H         8.76710069914114   -2.68776658806610    3.64199272986845
C         8.81526125005857   -1.86135281148870    1.66748513278852
H         9.29631992185997   -2.72520341261434    1.23259396992979
C         8.49645279016675   -0.76994076283378    0.87639560572653
H         8.72616264514554   -0.77927649376137   -0.17877619359137
C         7.88806496941664    0.34009279791457    1.43399052546688
H         7.64630228943602    1.19085044204908    0.81494082545055

