67
CSD_code = HUGWAJ | q = 0 | S = 0 | Stoichiometry = C26H28N6NiO4S2 | MND = 6
Ni        8.75400281808228   10.80909939122244   13.52206027276010
S         7.70748353262374   11.43785374102280   17.77401624761969
S         9.36688155772510    9.32560896725648    9.39536168774364
C         9.42327998139367    9.79177726398381   10.90979298150207
N         8.40888967411699   12.54135689073660   12.56057167752652
N         9.06559413975861    9.08655904352069   14.46705564994994
O        11.24838969948276    5.44670871681722   17.06440896312300
H        11.40901956674114    4.73847833435346   17.69543247604511
C         8.65214845850157   13.69750885954127   13.17819559479482
H         9.06521404434515   13.64049197499150   14.17572837414960
O        15.30458865022025   13.75595535104583   14.29034544993668
H        16.16033998294683   14.08248217590980   14.58445721230319
C        13.29443471359427   12.64050765705263   14.95871579681383
N         6.68767449671759   10.04347672872498   12.89320893171267
O         2.81015805888365   10.95192910695913    9.88922887980926
H         2.19659368679644   10.91437450649744    9.14929817705090
C         7.90646293920542   11.44085307357358   16.20035032868321
N        10.81215023924211   11.60348738079530   14.19997356395815
C         9.90245061346185    5.84675764964908   17.15668523861811
H         9.66795795084358    6.19870116668782   18.17403820372143
H         9.22802219061563    5.00548836446119   16.93080065527404
N         8.02139144871157   11.51445711031999   15.03194590628672
C        12.41123258924302   12.12179162063699   15.89938201811744
H        12.66568142120803   12.11039120194977   16.94838018285369
C        10.60702029835663    7.52107749612938   15.39845432751378
H        11.61226260591889    7.13639962440473   15.44681032409212
C         5.71376040725747    8.95676828300680   10.99643020859904
H         5.74388399224699    8.13181455892046   10.30119832937932
C        12.90035758428912   12.62145362865647   13.62879097105521
H        13.55671474970251   13.01191270990245   12.86884400001024
N         9.53270936994195   10.12764760900539   12.03146495619941
C        10.28842847388108    8.56983111806020   14.55369274477799
H        11.04811672779928    9.00481848126412   13.91855058640200
C         8.38940777651136   14.92874909392045   12.60981434695588
H         8.60733618122024   15.83164627238859   13.15978194537365
C         7.89358134111207   12.59807113522485   11.33481290447513
H         7.71749163703814   11.66156100098383   10.82460482328187
C         8.33083939012108    7.48090622593085   16.07016589516197
H         7.51576843108437    7.07779416515046   16.65137166757282
C         7.83950414229487   14.98905183011086   11.33398095810121
C         5.72911195755357   10.96420717683054   12.80652554071741
H         5.74823714654577   11.73818709802791   13.56398783936420
C         8.10310751361149    8.53097299552526   15.20252945972948
H         7.10994135633012    8.94464795396066   15.09512298654118
C         9.61623451096883    6.96465605828201   16.19408292813043
C         4.75117961800099    9.95387148578329   10.87658462100654
C        14.62807877914138   13.18848740638747   15.38617370757120
H        14.46458662581255   13.93917741939862   16.17566684085020
H        15.21698338220483   12.36662996916812   15.82501999604988
C        11.66069499758246   12.09682990991143   13.30320530049915
H        11.33578465874572   12.06256538354700   12.27118519405657
C         7.59302213874124   13.78554858623236   10.69079899658989
H         7.17245142538335   13.78171559281405    9.69914931826339
C         7.53297821594938   16.31301632465673   10.69209577881677
H         6.85229469704285   16.87287606787239   11.35338196206482
H         8.46982342503379   16.88811966230352   10.61427980523041
C         4.75316660987498   10.96699295302261   11.82457513324612
H         4.00412803063362   11.74042702464638   11.78521594769414
C         6.64333859399527    9.04082132987990   12.01497184349815
H         7.39573892811442    8.27112793442042   12.12863976838983
C        11.19544378941481   11.61924694163017   15.47432044780816
H        10.49380526420408   11.21849943893273   16.19369393009158
O         6.95543161461897   16.12411772297721    9.42433693326255
H         6.77223665817198   16.98215193534645    9.02957748309553
C         3.75150294257818    9.91330976049342    9.75466328600994
H         4.29852196479422   10.00391351577346    8.80243058066851
H         3.25194959174255    8.93138284136496    9.75968091144941

