43
CSD_code = HUGWOX | q = 0 | S = 0 | Stoichiometry = C14H18N4NiO4S2 | MND = 6
Ni        6.10189876360236    3.82604613292651    9.73580489658650
N         5.28345583837233    5.27540635725791   10.55126934970998
C         5.43145657671130    6.18590079844149   11.28651817769794
S         5.54771917226407    7.44142216309163   12.24215288995543
N         7.55728979288240    3.93928865432579   10.97629054507948
C         8.79653842357495    4.14227846530408   10.53165241544125
H         8.93602270575099    4.12812052780288    9.45831912630115
C         9.86729261187145    4.35544731109213   11.38006551346956
H        10.85323036547412    4.53392912583882   10.97921730294316
C         9.66289611876585    4.35441752988045   12.75449403198474
C         8.36883634503673    4.12265069349838   13.20860046280850
H         8.15120713108093    4.10603787414280   14.26504213310999
C         7.35281099704560    3.92414472111631   12.29403662331703
H         6.33882919678019    3.75121956845136   12.62874843338131
C        10.79509651173574    4.60438553008783   13.71622975710802
H        10.75738071364188    5.65247176622746   14.03430766037750
H        10.66021993424518    3.97880735431687   14.61112529051204
O        12.07006351098896    4.42727645390323   13.15970605164647
H        12.18278961707684    3.50405760173368   12.90634766078028
O         7.10479991205828    5.65301609423805    8.31896213408860
H         6.30215136403330    6.13676187779391    8.10008173255624
H         7.56910528645896    6.19205636700054    8.96616296908492
N         6.92073780707289    2.37709197744808    8.92020248765774
C         6.77154288732158    1.46432037667855    8.18797374529438
S         6.65471271000696    0.20625333516927    7.23569748025778
N         4.64573994981821    3.71262204427600    8.49541265311760
C         3.40632412158880    3.51238859468619    8.94087719125300
H         3.26733707385747    3.52823230708446   10.01425118923218
C         2.33476641634559    3.30009830175498    8.09326745967025
H         1.34870601037335    3.12384944562351    8.49479968989704
C         2.53845288598744    3.29924064804191    6.71873116544352
C         3.83271724503717    3.52803864026179    6.26370973968055
H         4.04984568683494    3.54306384348219    5.20713876766888
C         4.84957832446810    3.72568589536922    7.17754974811902
H         5.86373751356426    3.89614502745719    6.84210927442006
C         1.40527048301437    3.05031316395137    5.75786405856712
H         1.44124967633960    2.00194674643032    5.44050784166094
H         1.54054396001917    3.67504989793058    4.86245444344558
O         0.13092470397963    3.22969138417506    6.31506537621256
H         0.01923590891188    4.15346414664309    6.56682265449239
O         5.09928515815576    1.99871537556385   11.15233998926852
H         5.90180727730768    1.51077552133989   11.36385924153603
H         4.62729331053972    1.46307035816573   10.50723064515928

