69
CSD_code = HUGWUC | q = 0 | S = 0 | Stoichiometry = C34H31BrP2Pd | MND = 4
Pd        2.40481051932588    9.06877418840368    5.46537223548877
P         2.56897981608540    7.62483792489135    3.49328948541271
P         2.39504772089446   10.65040249622981    7.12133135301856
Br        0.44108099859719    7.82911980879568    6.38344849750578
C         4.10345797564185    8.09698477252409    4.23282633430637
C         4.42689525616537    9.07088421898352    4.99092720000577
C         5.56518619666711    9.70348976747158    5.58921260672830
C         5.75205150553282   11.08394057311972    5.50747231762815
H         5.03472946792278   11.69099367880574    4.97298031665202
C         6.84647240287435   11.67305464434884    6.10793467753104
H         6.97998148802912   12.74319081393549    6.03995289751050
C         7.76524265206290   10.89964595917204    6.79828659939688
H         8.61698876830855   11.36439582563078    7.27230145273232
C         7.58813237029029    9.52790226499666    6.87994101480218
H         8.30262877757968    8.92119521126972    7.41675135803899
C         6.50049700958326    8.92750850323320    6.27938714384502
H         6.35569011654426    7.85858991387625    6.34495773919501
C         1.10295607156808    8.69601985637570    3.16142188067576
C         1.42515539013658   10.04849414833441    2.97615450391098
H         2.47396970746540   10.33225816157340    2.85869936541661
C         0.41397448815248   10.98800949356098    2.85170476835506
H         0.65799000176403   12.03234477048194    2.71436146258647
C        -0.91124397945701   10.58520422066267    2.90762299990415
H        -1.69886868894766   11.31906639435032    2.82327269145614
C        -1.22841774491612    9.24609224772760    3.07662240305374
H        -2.26186781297100    8.93719901800299    3.12115129665860
C        -0.23048908813770    8.29881057922077    3.21447029876186
H        -0.48460725116957    7.26361665563962    3.39056967722551
C         3.14071028703127    7.42365505173036    1.76172261074818
C         4.49279499096133    7.37390264772634    1.45949167324515
H         5.21476222160109    7.50663800433331    2.25593665761720
C         4.90712052906906    7.16426522892669    0.15629155599795
H         5.96185480032355    7.12992738846693   -0.07485535357309
C         3.96962871576294    6.99858218094264   -0.84914738251513
H         4.29218837812287    6.83501041604908   -1.86679655025059
C         2.61655923622366    7.04476446106113   -0.55135698803761
H         1.88495246835422    6.91569896465676   -1.33562522690361
C         2.20244603057391    7.25777687405539    0.74967781975845
H         1.14683166823343    7.30270248553637    0.98632426771001
C         2.08638617207600    5.92769698734077    3.90892450646549
H         1.50064719671206    5.51618722191965    3.08599213777715
H         1.51270884303081    5.90183422624932    4.83798568007007
H         3.01074566261107    5.35787676327553    4.02223945845762
C         2.62443392193765   12.42128224947971    6.76812661054287
C         2.69623938420145   12.77858364035343    5.42644951154277
H         2.60693999030768   11.99467790977889    4.67845010659082
C         2.86188674201274   14.09980090223904    5.05470542951423
H         2.91818648802791   14.36920663855237    4.00959576295558
C         2.95502590459222   15.07807558861169    6.03050071044669
H         3.08918732867276   16.11201355779066    5.74843059921086
C         2.86510948637695   14.73279070976920    7.36971390663867
H         2.92612820700401   15.49974403880461    8.12838615795295
C         2.69366398722766   13.41144434338618    7.74148300139986
H         2.61036641380633   13.15467214061062    8.78788646369977
C         3.76867722419950   10.13471693275145    8.20579836521337
C         4.71813946172431   10.96620724806078    8.78107918335543
H         4.68667216608858   12.03197318819271    8.60712366592872
C         5.72566069843444   10.42370281594331    9.56070060971564
H         6.46596897326787   11.07404591982188   10.00381668720166
C         5.79056183604930    9.05746828932923    9.77004689298874
H         6.57734228219648    8.64246062301262   10.38271699448337
C         4.85688897104867    8.21977096409131    9.17958187179049
H         4.91624925079302    7.15139625787863    9.32815335166718
C         3.85715423402792    8.75409396200789    8.39128379397552
H         3.13271075150377    8.09583943990058    7.90207630645938
C         1.01310318516032   10.66809009691237    8.32453152558517
H         0.84899681549697    9.65121288278908    8.68203222758852
H         0.10890609268809   11.00482281767838    7.81626520118076
H         1.23933886690370   11.32446182839656    9.16393561799974

