49
CSD_code = HUGYUE | q = 0 | S = 0 | Stoichiometry = C20H21FeNO6 | MND = 7
Fe        3.20317993542981    3.01777228877279    2.17306476280010
C         1.85127275328209    1.90378043008627    2.31466950577315
O         1.01237060839250    1.12857461059128    2.41218660926223
C         4.36715977201636    2.23046824052947    3.27586019714475
O         5.14757787138506    1.70224276464734    3.92388147392459
C         3.57512967453181    2.20008267069551    0.64284127685630
O         3.79226367527496    1.56384665389340   -0.27819592367250
C         1.32828199202508    4.20537002123224    4.62535055049921
C         2.46751387201478    4.45628312123316    3.66982799966477
C         2.16520871741285    4.94197558722304    2.36596602062701
C         3.20165772947895    5.02817952247231    1.42768539415059
C         4.53246854616082    4.67103112249734    1.84339744488716
C         5.53148299057933    4.55007823524889    0.75466308840050
O         5.22573569590523    4.27855965860953   -0.39660921063349
N         6.82043870441089    4.74515527320985    1.12112738715717
C         7.90415386524856    4.58707073946692    0.16454646982345
C         8.02878935905389    5.83713234909959   -0.70450698338905
C         7.58898164465371    3.38246014950421   -0.73696190354914
O         7.75402101203512    3.35746549897166   -1.92350219578504
O         7.21721731735948    2.32651064344574   -0.00518274340429
C         6.90400776578957    1.15654111226670   -0.74913157696524
C         9.19967842100756    4.28247133393633    0.94602487003023
C        10.32646962896176    3.88162073936106    0.03464067638149
C        10.52484040695129    2.54530203538715   -0.28791191271517
C        11.53293540895012    2.17208621930097   -1.15795835009677
C        12.36166102694733    3.13175689462743   -1.71313045866605
C        12.18323446467333    4.46398119305607   -1.38435961668484
C        11.17294923436253    4.83554707348918   -0.51502896079977
H         1.64228697982689    3.54806833226035    5.43220133001490
H         0.99727786370821    5.14604047058239    5.07058255678893
H         0.48176791787241    3.74816150841877    4.11833551293233
H         3.32968599441635    4.88537002916011    4.17710470186070
H         1.13955553834805    5.13989496848878    2.07192656126101
H         3.02056633030665    5.31783095142109    0.39849519882470
H         4.92578939808825    5.11164815500750    2.75809526245860
H         7.07757652055200    6.02034011932196   -1.19718963929885
H         8.29259011178724    6.69870495974402   -0.09521688324797
H         8.78334236991450    5.67873233526593   -1.46877839940588
H         6.62350742562399    0.39869409459445   -0.02172215777637
H         6.07729606414339    1.36161111185607   -1.43023696021641
H         7.77179185882528    0.83766475631279   -1.33108343509888
H         8.98808466451408    3.46924827634036    1.64452509477291
H         9.47560770548588    5.17547443052861    1.51321458943882
H         9.88715581123853    1.79130681943716    0.15084615876867
H        11.67274629009502    1.12946141177092   -1.40332464887869
H        13.14645434523949    2.84160540772170   -2.39574975931739
H        12.83173310278680    5.21742011153655   -1.80702733872807
H        11.04443078501760    5.87724820858684   -0.25816671140785
H         7.05807082791751    4.92752735878298    2.08231507523854

