108
CSD_code = HUGZAK | q = 0 | S = 0 | Stoichiometry = C41H54F3O8SV | MND = 6
V         7.27177411401743    5.43773859908220    2.17113282337087
S         6.23154554602869    7.06321261720276    3.93641928769856
F         4.14298227036654    6.33365966380028    5.46720532150053
F         3.63085580924951    7.46155079951737    3.70504264393425
F         4.39360188049383    8.47333532860520    5.44858301583464
O         8.22212959446406    4.28383746708114    1.31240763102595
O         7.54506897355774    4.02961397568491    3.54534088886088
O         6.74189965215635    6.25678847509488    0.88991592167376
O         5.51248902216772    4.17841672713290    1.24621090856676
O         8.30229201885098    6.36166711824557    2.81434520365734
O         5.80227525445933    5.80438992985052    3.28108011205802
O         7.09203039070230    6.88790717502141    5.05744319294524
O         6.36613446218508    8.17231009479908    3.05268333458709
C         9.14940383468424    3.50999405015090    1.99106572290866
C         8.52952791881834    3.33020184160825    3.37674241326070
C         9.00848869267157    2.38274110453319    4.45241235653398
C        10.42540397363912    1.82508948352785    4.13146943338499
C        11.50753586258944    2.90619338714614    3.96889793483117
C        11.64363601228705    3.49213731984584    2.56375883941219
C        10.44387314577756    4.33662095680774    2.15880978407710
C         9.37830835857499    2.21481207557251    1.19368522565858
C        10.63528450732787    1.44944461588626    1.58834482374828
C        10.52681252079697    0.82035364996015    2.97380487336682
C        11.84698948800561    2.37465983922970    1.54420118499393
C         9.00625914082349    3.07509189096382    5.85688785083241
C         9.41367470138605    2.08157537648846    6.95395751172774
C         8.41938463308153    0.92118525713429    6.99743006340336
C         8.34373443527786    0.23764658659717    5.63243326440206
C         7.93195211822182    1.25273628557850    4.56041327643553
C         6.55397515527990    1.80053289891972    4.94356596005738
C         6.61591296338864    2.48316891476276    6.30801103176454
C         7.63451376438746    3.61976423136778    6.26856175093054
C         7.03741986088294    1.46047000184956    7.36348929729852
C         5.68547075576279    6.14972258699871    0.02695844712697
C         4.89427570745858    4.91720429015990    0.50780993615406
C         3.45618009817842    4.63819830764589    0.10518910311982
C         3.08173868501639    5.37465657951258   -1.21482494228540
C         4.04771910917836    5.09910013403116   -2.38206183552569
C         5.25512341375229    6.03398643135834   -2.48315897724866
C         6.26369614693605    5.80943149333342   -1.36660495295925
C         4.96107848119669    7.50790675009954    0.04007984797956
C         4.05524991236383    7.75243307142424   -1.16018710709625
C         2.80539952863269    6.88206430273582   -1.12143604157654
C         4.80746191819596    7.49250641388009   -2.46202421098709
C         2.56667088451012    5.07536848418463    1.31189759668814
C         2.90136109294601    4.28758076668513    2.58113430357507
C         2.63792181957378    2.79907552730346    2.37108452492055
C         3.49230173351212    2.29365336435239    1.21165583688847
C         3.18567725102239    3.10486648350470   -0.05402053638964
C         1.70908489874840    2.82495922376716   -0.36949102266465
C         0.82933166397382    3.34682504417539    0.76607941631180
C         1.08735526283455    4.83668868835073    0.98679034748069
C         1.16071782268024    2.58407665336875    2.04685661031979
C         4.52403258045498    7.36975289450780    4.70788424111217
H        10.71459634175590    1.25790683418373    5.01671406218715
H        11.34043416247014    3.71872591370035    4.67453109775350
H        12.46714087482642    2.44832369606382    4.22617271218481
H        12.52403330847768    4.14458614181931    2.56187922207100
H        10.62305741170952    4.80668481187697    1.18731522367993
H        10.24169113313661    5.13884942366589    2.87625797484160
H         8.49097217822114    1.58384619928482    1.28691365957117
H         9.45405871741684    2.52132549680111    0.14736060154514
H        10.77317293588812    0.63898196720671    0.86255654452259
H        11.43566769742747    0.23328362980388    3.13650446226785
H         9.69261696544995    0.12063220514786    2.99317141952018
H        11.96253396696593    2.79689719783734    0.54493174833374
H        12.75169141742764    1.81102914758018    1.78049743225875
H         9.70887177126783    3.91242401343921    5.84123023399444
H         9.39279917492247    2.60557151343138    7.91176257074939
H        10.43130573286463    1.71184917513819    6.82608298254726
H         8.74139363537388    0.19187161936084    7.74955867953224
H         9.29455290069279   -0.23619498288841    5.38869076330619
H         7.59011957094736   -0.55299369808309    5.66707722350395
H         7.83994151444582    0.74783766643966    3.59320249451295
H         6.18289710090912    2.50264372443946    4.19473401722368
H         5.85023113499411    0.96365838155372    4.98066602999041
H         5.62985951404695    2.88711413260933    6.55690624880109
H         7.30461041413621    4.42556140564205    5.61338699043969
H         7.72965867485828    4.05605487927365    7.26598260247598
H         7.06842282122281    1.92971977049750    8.34865289774698
H         6.31550620885018    0.64135082819021    7.40666978144708
H         2.13077830780205    4.93887063646992   -1.52257382793918
H         3.47793800014056    5.20544419159614   -3.30965316884810
H         4.40164745279472    4.06812429718036   -2.34093565171234
H         5.75832579616390    5.82364953054550   -3.43460925691136
H         6.62394949031349    4.77622354396709   -1.34379987407700
H         7.13208759485869    6.45949514961477   -1.50688536751837
H         5.75469366169416    8.26031570938958    0.06659830691057
H         4.41355343112232    7.60371616654722    0.98007112614046
H         3.73980471512513    8.80114677194604   -1.12943510069092
H         2.22798715503210    7.11785183638202   -0.23005928011796
H         2.18656451668873    7.15087345282448   -1.98336217341570
H         5.67554922169084    8.14914280364392   -2.53577902668437
H         4.15500872907807    7.69686506294769   -3.31341210394315
H         2.73208549743063    6.13386818045159    1.52730002977355
H         2.27376660675133    4.66252316655420    3.39325273409137
H         3.93739146887588    4.45076361676978    2.88108588553858
H         2.89777428641788    2.25119239051577    3.28321587274998
H         4.54635088932314    2.34712071145615    1.47239966105677
H         3.25695148456357    1.24398725205870    1.01101635448322
H         3.80544604471850    2.71899216351051   -0.87067869085013
H         1.57823681370387    1.74352419472540   -0.45753961176599
H         1.39581607011195    3.25041641808957   -1.32304864499691
H        -0.22536331325981    3.19484332093051    0.50925243031288
H         0.77164212423621    5.40499755039455    0.11203869368942
H         0.49004944680350    5.18516468043783    1.83229217828354
H         0.95508120502535    1.51922126667961    1.91308550984211
H         0.53892717861327    2.94371960993656    2.86928984981315

