49
CSD_code = HUHMIH | q = 0 | S = 0 | Stoichiometry = C21H24ClNORu | MND = 9
C         0.95250215798214    7.00511343710273    1.35026069939326
H         0.69596338006652    6.42001954171444    0.47664334176039
C        -0.05128076160581    7.57579490703688    2.14277414387394
H        -1.08349199228843    7.40728326563906    1.87709828098189
C         0.28536002865578    8.33666338926920    3.23060891954028
H        -0.47263836753259    8.78588200096443    3.85485405131153
C         1.64960695235350    8.54685971038653    3.53134644289313
C         2.13453643186258    9.31643799532223    4.59804577636270
H         1.43371265504040    9.79752057028363    5.26253818571207
C         3.49342500892878    9.46301046661943    4.77714596733135
H         3.85362433945502   10.06502204747770    5.59938258755895
C         4.42573871012212    8.86902656049316    3.93589022665625
H         5.48312405185701    9.00919905017580    4.09573892330075
C         4.00231004779234    8.08880553292198    2.85649114967696
C         2.59211789040766    7.93229238224885    2.66875194307692
C         5.58280389822809    5.29421581858484    0.06397384762792
C         5.09937643897528    5.75056623753597   -1.17835877228604
C         3.73792774652331    5.47566768489975   -1.55751236531985
C         2.90039340775222    4.71293976499875   -0.71988372835702
C         3.36942574410371    4.34053784391179    0.58737302915102
C         4.72423535769172    4.55525469259142    0.94584695017708
C         6.99462164810393    5.58705656810577    0.49503733959687
H         7.66873281100550    4.78852732114380    0.17867100378982
H         7.04686233533695    5.68757318446236    1.57523732893300
H         7.33638705896413    6.52739165769974    0.07281868974793
C         5.98749958585004    6.46739174960277   -2.15983776700331
H         7.03783879082746    6.27799209367330   -1.96166535734986
H         5.80802459989647    7.54267562668947   -2.10220732513204
H         5.77298202949767    6.14167861647945   -3.17519481116766
C         3.24255465120311    5.97798125765611   -2.88546860470203
H         3.55371549073359    7.01265558224854   -3.01874506944013
H         2.15915252058914    5.95296118682201   -2.94194333725664
H         3.64889288027224    5.37876732666590   -3.70211535173243
C         1.58169105728469    4.20021394078492   -1.24517521817210
H         0.81426325325108    4.97428638720479   -1.26552314232299
H         1.21496901664488    3.37266795571170   -0.64567880363737
H         1.71500123522611    3.83832421644876   -2.26389501727646
C         2.44392916699347    3.62565758734826    1.54021293143747
H         2.50635199919225    2.54406472567949    1.40400852374208
H         1.41273230846538    3.93501415293306    1.38782059666699
H         2.70060386613316    3.86139200122819    2.57023632703596
C         5.29816612623619    3.95525197691964    2.20322709715589
H         5.32799697451997    4.69277657809472    3.00640238661157
H         6.31342243294894    3.60866084657766    2.02253578624028
H         4.71134865092113    3.10425168672661    2.53754093048096
Cl        3.57871704886099    8.63064483782936   -0.54131840297998
N         2.23529055626613    7.16890639189632    1.60762211571611
O         4.79012836980957    7.48171445568005    2.03551717565455
Ru        3.76835040859620    6.53890718750562    0.48857037494296

