46
CSD_code = HUHMED | q = 0 | S = 0 | Stoichiometry = C20H20Cl3NORu | MND = 9
C         5.38977723933993    8.23969169715167    1.97085637965436
C         6.70609365121766    8.67818517149187    1.73319726738990
H         7.44638077037340    8.52164387582883    2.50194340600266
C         7.04136392034748    9.29054999367980    0.55862482200487
H         8.04963510526688    9.62034427647147    0.36343354689967
C         6.03686663028551    9.52059857826249   -0.40341189307580
C         6.21566166836174   10.18633782813253   -1.62950548840367
C         5.16014021986937   10.39303945244315   -2.48927125758629
H         5.31342242826749   10.90864053896619   -3.42401966055456
C         3.88326636612334    9.95078692850783   -2.16519367631763
C         3.62113975048395    9.27812568594845   -0.96255624468158
C         5.02940881706316    7.62880054968676    3.28670857195966
H         4.04772273004310    7.99623401821621    3.59303217276310
H         5.76093387685904    7.90572160580184    4.04075546652936
H         5.00401903808803    6.54167396678726    3.21644125238334
C         4.73483997270401    9.05370662110488   -0.09454164666751
C         1.98491089672962    5.78348528353163    0.34208257332425
C         0.82343040448064    6.59192139136383    0.33444085708545
H         0.28642044966956    6.73461509090790   -0.59757429281815
C         0.32861087006615    7.18210876703370    1.50762891586171
H        -0.58584340074536    7.76326582746441    1.47691800095098
C         0.95599886138220    6.93658934130041    2.75998732589030
C         2.09766231173012    6.11954554928198    2.78620327780817
H         2.54136483957124    5.84691675191941    3.73685829194177
C         2.64368568391193    5.60851860310786    1.58032202746668
H         3.50147129560405    4.94625987633603    1.63607295399990
C         2.46565899155280    5.09767778181899   -0.91447278491923
H         1.83737846577248    5.43521543148964   -1.74586506776193
C         3.91228973248024    5.48187624585708   -1.23430204201402
H         4.00291588105708    6.56517559572508   -1.30659702184361
H         4.21272515651221    5.04912949336385   -2.18536487644940
H         4.59508311035970    5.12550261893989   -0.46616426999439
C         2.31234491443568    3.57955877859885   -0.77942009027242
H         2.94768879906073    3.19292677492646    0.01446451559089
H         2.59398448919162    3.09363650575957   -1.71007998321321
H         1.28052568942276    3.31848892154970   -0.55265187163858
C         0.39861310790404    7.54026048516064    4.00949861867429
H         0.80289657391993    7.05811106297276    4.89642429465815
H        -0.68720994459165    7.47172937319941    4.02183734661000
H         0.67036812865327    8.59900099397865    4.03578675982014
Cl        2.29998510927648    9.90490332245315    2.28695082130050
Cl        2.58043234113155   10.23041118945065   -3.25666949492502
Cl        7.78581109733247   10.76761402112743   -2.06077994186972
N         4.44545738377468    8.38630244244763    1.05661499468223
O         2.46327397564826    8.84855928278843   -0.60931526721786
Ru        2.47749260000671    7.85161240766745    1.19797241097761

