45
CSD_code = HUHMUT | q = 1 | S = 0 | Stoichiometry = C19H22NO2Ru(1+) | MND = 9
C         4.81591993511183    3.11346378503065    2.95262718348596
H         5.62033640495365    3.70613401716373    3.36833354678767
C         3.54480488629985    3.12876520117744    3.54349087817822
H         3.38341877441692    3.74076078348361    4.41592691844501
C         2.52991775791430    2.38060718923232    3.00431664632865
H         1.53987914120486    2.39514937003750    3.43338972914977
C         2.78412757942167    1.58019774508834    1.87095487453270
C         1.84788826567712    0.75485944110199    1.22602948896180
H         0.84098126472378    0.70428269801467    1.60686721759779
C         2.22365963747754    0.01934979565431    0.12626486418913
H         1.49620342231661   -0.60957150971388   -0.36340923898458
C         3.52059401204177    0.05089760828761   -0.38750550152195
H         3.78840062228387   -0.54449797955156   -1.24537812079383
C         4.48715851034746    0.84797163490837    0.21487268086331
C         4.10436821586599    1.61844205035433    1.35318494826119
C         7.19725974238319    3.96834702250874   -0.46288456434218
C         7.31082089428439    4.44550220779726    0.87192348210972
H         6.72581391175957    5.30604721387478    1.17974498566529
C         8.25402008926947    3.89982956174160    1.76846858927746
H         8.39382785133217    4.34315654557089    2.74763797332688
C         9.06814977948413    2.81864013001114    1.37182598166210
C         8.96765570868173    2.34048755763500    0.03552572868816
H         9.65404739725650    1.57441576485415   -0.30831589232751
C         8.06765948589628    2.91859859974725   -0.86570213624841
H         8.04392010567140    2.57660950882276   -1.89408011321153
C         6.25864484703012    4.62055224046365   -1.44931852222039
H         6.35440024080793    4.09850341400658   -2.40673307801455
C         6.63961398347528    6.08926624433236   -1.66043780173686
H         6.48936367750945    6.67051004512029   -0.75432958814258
H         6.02009672560254    6.51628549446208   -2.44379049180527
H         7.68090304351109    6.17713029245161   -1.96126284091041
C         4.80701953820989    4.48446213257318   -0.98094624456741
H         4.55518948595383    3.43244535623972   -0.84675923223301
H         4.13789303247514    4.90297747865243   -1.72740413336841
H         4.64243116630545    5.01069895606904   -0.04284418324999
C        10.10312815525795    2.26806144530022    2.30390301439018
H        10.96417877862430    2.93841988645911    2.31496406928488
H        10.45153638845227    1.28816632545865    1.98426362957556
H         9.72567916876758    2.20321996061795    3.32322015001475
N         5.08500919894428    2.38654339234922    1.88899995310392
O         5.72839933317755    0.94591788875754   -0.18068098177900
O         7.02720171748539    0.26675226978487    2.16295220669984
H         6.54442614040729   -0.40442140424018    1.65328566576708
H         7.93130426876266   -0.05630344889606    2.27174635060256
Ru        6.86354771322101    2.23616608723102    0.95186190850377

