73
CSD_code = HUHSUA | q = 0 | S = 0 | Stoichiometry = C31H36Cl2N2OW | MND = 5
W         0.28183149333459    6.66903123857552    4.81116812526076
Cl       -0.40517899875431    5.06837651486595    6.37492736668627
O        -0.70173417644133    6.10739252845072    3.57661468836255
N        -0.89403460964862    9.20483089011725    3.58222854725729
C         0.29115932207625    8.67323367690755    3.95405731494687
Cl        0.84179966666678    7.93397382537919    6.69560628611902
N         1.16624726448462    9.69987589297597    3.91361815765937
C        -0.76063858605259   10.53889379031826    3.30795840017533
H        -1.58847693976614   11.14675126364435    3.00441584602861
C         0.54055755608718   10.85115995591328    3.51975712654636
H         1.06304938969216   11.77926173644210    3.41189899337003
C        -2.08920511848294    8.45343519565007    3.38347049004305
C        -2.45530597658826    8.13314265599559    2.07359828180959
C        -3.63170206753969    7.43165369871644    1.86855938673854
H        -3.91719315383441    7.17040908205017    0.86006087994597
C        -4.43249109824709    7.03372054630164    2.92961549004681
C        -4.03073614291144    7.34267413398873    4.22082278343651
H        -4.63190632685367    7.01350387608338    5.05593431642199
C        -2.86083973252873    8.04542429569067    4.47239995074926
C        -1.54985237163075    8.47959227250328    0.93078567918796
H        -1.36858698281193    9.55205199855768    0.86871108222125
H        -1.97966352282262    8.14514968896138   -0.00892537199260
H        -0.59270928849149    7.97677506578249    1.07607658630784
C        -5.68839822874102    6.25216807476867    2.69955368514378
H        -5.97420408944192    6.26971584082596    1.65119345506572
H        -6.50571183291130    6.65192343104956    3.29671904533088
H        -5.53461603286620    5.21527194320713    2.99656253314559
C        -2.43427890688137    8.30828905942160    5.88584231466382
H        -1.85389041597049    7.44904262914428    6.25626781739294
H        -3.30341650536162    8.40778878659105    6.53355985568517
H        -1.82596622690973    9.20887706704547    5.97714204103067
C         2.57073570698697    9.56418329608445    4.10657292324923
C         3.30349991037816    8.89036348048791    3.12739074189310
C         4.67051747344911    8.75018120410743    3.30602827229646
H         5.24438575758935    8.22254074114612    2.55964486613727
C         5.30870185656101    9.26769576887865    4.42330659705310
C         4.55844750737618    9.96812579964477    5.35855411906560
H         5.05227857501851   10.39131994175351    6.22130307780411
C         3.18977823022287   10.13868312248408    5.21721955984358
C         2.62762565651350    8.35675168349660    1.90194784657007
H         3.35836831919435    7.90333304454860    1.23911000916165
H         2.11402239569455    9.15655961523004    1.36733060253607
H         1.89092327600654    7.60037155868135    2.18812318144491
C         6.78219709954422    9.09094703561369    4.62155368022970
H         7.26745516129093   10.05514820095054    4.76533249864680
H         7.23034696849032    8.59377863804406    3.76599020014419
H         6.96933327517325    8.48978597521299    5.51024040394035
C         2.40478669537116   10.91920416959998    6.22547119764914
H         1.57870958560470   10.31891040045596    6.60247366849582
H         1.99577792752641   11.82744529683131    5.78357896048980
H         3.03812389810169   11.20055586259366    7.06194308464580
C         2.08102805634327    5.95811612290808    4.40453783459292
H         2.85767638897891    6.25539444888197    5.13298632571404
C         2.57821981729894    4.84957406679606    3.52020051748456
C         1.55726899335849    4.55595404998688    2.41499041858948
H         0.59311644848337    4.34891275364064    2.88455214964688
H         1.85750509126067    3.69075546428760    1.82752206871635
H         1.42241980997890    5.41329847409612    1.75858456440997
C         2.65897376712105    3.57984479728688    4.40396919025314
H         3.36454819025667    3.70254649115397    5.22076913635027
H         2.96719960840481    2.72515059825332    3.80499405395258
H         1.67502958867226    3.38333889270876    4.82848728942716
C         3.96828758336620    5.16495586826871    2.98431326183466
C         4.24147748680671    5.26153666316066    1.62466553063899
H         3.45857230328121    5.11273493518322    0.89921311761626
C         5.51915301402908    5.54157620604560    1.16808929702620
H         5.70165667559206    5.60955548936346    0.10452325513396
C         6.55912921935064    5.72594971918183    2.06040027079483
H         7.55703356028314    5.93639207683302    1.70316538127216
C         6.30377375602640    5.63341264204525    3.41787284635641
H         7.10505950061439    5.76968886633912    4.12989151596890
C         5.02598792056120    5.36338132823518    3.86904331501729
H         4.86016058399769    5.30325455356773    4.93441201314854

