95
CSD_code = HUHSIO | q = 0 | S = 0 | Stoichiometry = C44H46OP2PdSi | MND = 4
C         2.58988815653214    5.21981306164658   19.72004843499742
H         1.71276499255969    4.56906948897110   19.66795171704332
H         2.62525118745210    5.66603171266993   20.71963246322913
C         2.47734835794320    6.31203231380557   18.65208678127869
H         1.86434560117375    7.12742937705032   19.04820410950970
H         3.47276989706214    6.72083535277827   18.44167772697691
C         1.84038904734744    5.79801273819658   17.35928519771897
H         1.50044209649413    6.63119864553263   16.74019664537306
H         0.96251348361996    5.19130156846369   17.60191067468123
C         4.03485224351615    3.05629087240432   20.94432017284404
C         2.83781122060604    2.47298901489928   21.34815865187627
H         1.90632936716240    2.75667422004193   20.87806150222711
C         2.82936072596966    1.51901848016954   22.35055729802511
H         1.89438771849807    1.07471773592849   22.65977949675496
C         4.01482820433621    1.12624822673745   22.94772933171262
H         4.00592725903757    0.37542851708689   23.72366459209903
C         5.21229969902460    1.69258042837332   22.54144011707373
H         6.14098515455880    1.38198743769144   22.99597308054379
C         5.22424387335593    2.64872432105183   21.54476368456288
H         6.15926927797398    3.08104859034079   21.21740912947929
C         5.37059121718853    5.40649093338375   20.05931266947927
C         5.45967025366145    5.87507404119796   21.36640193235791
H         4.79442260325386    5.48637022767729   22.12586112772987
C         6.41123234400142    6.82390700053641   21.69039545643036
H         6.48562793767287    7.18539707534717   22.70572421345531
C         7.27130693790914    7.30997117165573   20.71685250315295
H         8.01488969227520    8.04835897911708   20.97796691429913
C         7.18206494473684    6.84990054330500   19.41351114043688
H         7.85183203476998    7.22616525523662   18.65537670358177
C         6.23060175847151    5.90008107114388   19.08601843379913
H         6.14312434689868    5.51841856268150   18.07019666374129
C         1.77033967936583    3.58172163387163   15.67117341167292
C         1.11165768655681    3.73003822987207   14.45902967602578
H         1.32607678400544    4.57702763214484   13.82249350031974
C         0.18762091981207    2.77820117221470   14.06201910395126
H        -0.31985367549632    2.88812178725737   13.11446343440544
C        -0.08412766063950    1.68594538661886   14.86868977221085
H        -0.79910299199738    0.94313507838845   14.54635272484885
C         0.56527081671401    1.54083686359608   16.08521603711278
H         0.35641852017579    0.68529336154056   16.71129519001893
C         1.48830643155931    2.48715719018787   16.48535905720949
H         2.02368144597140    2.38606572920649   17.43322146739805
C         3.47567158740040    5.77428217754557   14.94934021008391
C         3.95924711175981    5.10403096731860   13.82490528941309
H         3.97559868998718    4.02274006505385   13.82725009626584
C         4.43377675236769    5.81812826380411   12.74251767864877
H         4.80146506481434    5.29445670951034   11.87256019664026
C         4.44777306568690    7.20446480425677   12.77587642577079
H         4.82095528070869    7.76332240247543   11.93047054197564
C         4.00029012380515    7.87282645873790   13.90287100593434
H         4.03040515986704    8.95253100485040   13.93884261027877
C         3.52395270149902    7.16379026491928   14.99284145864643
H         3.20303024415475    7.69879704423600   15.87619018736195
C         7.28303756887571    3.24810103494531   15.38780457708625
H         8.33424909190125    3.04778650110515   15.22169908623960
C         6.92359870108139    4.46540491099228   15.79180763429099
H         5.85206571770591    4.68803314304279   15.88309453154117
C         7.80387953622478    5.61067896811602   16.00602850120658
C         9.15211176907790    5.46641163080744   16.33506839241288
H         9.56124067652358    4.47629564739663   16.47208637572887
C         9.96114117408197    6.57394833870151   16.50178880406524
H        11.00278614188317    6.44486520702656   16.76047810944249
C         9.44391286516340    7.84961074318465   16.33999731774897
H        10.07942010504568    8.71429909052199   16.46672838340780
C         8.10465988170420    8.00901263910345   16.02021430172757
H         7.69319586922538    9.00121339375951   15.89611508259859
C         7.29193434351649    6.90268699136023   15.86441907396761
H         6.24690593149838    7.03199751942542   15.61474981026317
C         5.78701154070236    1.87564703559786   13.11621662278624
H         4.81866004587140    1.47792935092962   12.83105352036589
H         6.54689605318881    1.24364516134463   12.67101961155817
H         5.88458178003430    2.86508547850908   12.68106781041162
C         6.75703879721686    0.23043109659087   15.52203977672436
H         7.05735828461050    0.20964687383100   16.56447920327567
H         7.63182810911958    0.01433093981616   14.91725147460416
H         6.04662842259648   -0.57596602123775   15.36882674222261
C         5.74296292387916    2.07043384504071   18.42501232388903
C         7.06222493377411    2.41835739867287   18.67261954759731
H         7.43335394479876    3.40607819066203   18.41243196070489
C         7.93283991376389    1.50526729171939   19.25326295176861
H         8.96210205387892    1.78316712886761   19.43522245466177
C         7.48064499802691    0.24655141890412   19.60254774597177
H         8.15301612154723   -0.46497977581746   20.06089171964515
C         6.16481032881780   -0.10644407026059   19.35355328212935
H         5.81489160985977   -1.09649432068001   19.61454832419577
C         5.29159582343162    0.79450241147665   18.76216110511832
C         3.87006240545215    0.42148310224081   18.44796112581533
H         3.67578416413978   -0.62442834335638   18.67646773061956
H         3.69032429197195    0.59449297156050   17.38086876472981
H         3.18181273831531    1.03932918374038   19.03893043006686
O         4.60910907517891    2.26362855719241   15.70763916018704
P         4.12596374197316    4.19688684095929   19.53001229993099
P         3.00089609730773    4.73139627598189   16.35743157539465
Pd        4.49640644598621    3.34917738000932   17.51514434351643
Si        5.97713060878534    1.90371764774170   15.02271076906718

