89
CSD_code = HUHXOZ | q = 1 | S = 0 | Stoichiometry = C40H44IrN2P2(1+) | MND = 7
Ir        2.46980091077982    5.06394121423012    9.40725129007861
P         3.35928673529101    6.22708270658062    7.34617829000105
N         5.99639041297855    6.45314403218900    8.70987944342307
P         2.12663013803074    6.97931138483164   10.92939727516967
C         5.30888525349753    6.12198371818646    9.82721108015622
N         5.44487103411625    7.14705521534035   10.69579314025037
C         6.21999721765955    8.12181948464292   10.11916971121459
H         6.46305133034953    9.03045736564775   10.62840621229844
C         6.56857701269840    7.68707083287586    8.89021851596014
H         7.16248943677499    8.15583991823208    8.13419329375559
C         6.17309313487459    5.63587279993908    7.53328246487321
H         6.70611536313531    4.72247694227223    7.82163561962265
H         6.82248459169106    6.20368574746910    6.86459402092787
C         4.87102858361685    5.26908206817204    6.80366339314651
H         4.62557276011415    4.22067336758656    6.98080573915769
H         5.01083699703317    5.40294429056616    5.72953097796470
C         4.57476451629273    4.91418471379847   10.03914569539027
H         4.56132880235854    4.65375180314663   11.09764858754758
H         5.04058179292025    4.10219983337275    9.48157620811775
C         4.81200518496835    7.26403047839757   11.98229431454424
H         5.46664159239553    7.85978122728295   12.62556493394643
H         4.71370768384981    6.27025827007222   12.42225685654299
C         3.44899379144437    7.94476331943589   11.87323058454964
H         3.57854336637225    8.90970743769573   11.37565655931921
H         3.07702395028942    8.12722802436672   12.88367642439971
C         3.98354445454546    7.93614637144353    7.08156840783842
C         3.85514886101247    8.86969233289548    8.10000285592256
H         3.39624279157601    8.56508304761875    9.03107520632765
C         4.29166426238006   10.17072163921174    7.92620266878048
H         4.17167569336570   10.89206437785137    8.72087726904046
C         4.87470001416772   10.54535882010664    6.72812691463584
H         5.21617131119948   11.55899615439491    6.58558541621358
C         5.01071505933879    9.61826981962368    5.70592620414625
H         5.45875763343936    9.91182362023708    4.76848937676475
C         4.56344662492119    8.32166823414124    5.87628633017257
H         4.64820287807697    7.61396656730011    5.06379614158784
C         2.36454089709318    6.09645960582471    5.82129128089925
C         2.33538012851897    4.93865275266609    5.05152911794024
H         2.95921916241938    4.09692985456481    5.31113765890201
C         1.50958438481110    4.85682357049918    3.94431100059020
H         1.50169880055668    3.95633541888020    3.34843703507679
C         0.69404650357234    5.92194080699741    3.60113974173418
H         0.05023179256208    5.85480238408693    2.73791023440248
C         0.70693035680554    7.07389659367180    4.37088503942807
H         0.07279941950122    7.90726789674271    4.10814732610575
C         1.53248885699209    7.15993070064797    5.47598944223465
H         1.54563419831416    8.06467977206044    6.06933148607789
C         1.17593709460040    6.41958838327361   12.38875523844436
C         1.79697151882640    5.51225632878161   13.24326127699130
H         2.80217822867290    5.17958802473671   13.02631581691290
C         1.13409575030623    5.02064624802397   14.35073680749258
H         1.62755124715462    4.32143022691985   15.00901896376394
C        -0.16748899831699    5.41990130666847   14.61099026856035
H        -0.68851159159443    5.03708270285079   15.47480323110974
C        -0.80104702035997    6.30170549853077   13.75233897106588
H        -1.81969254753798    6.60436861882687   13.94275434172557
C        -0.13766728022792    6.79667037610940   12.64193296254158
H        -0.65106734937407    7.47356277499382   11.97424750233076
C         1.14422372972793    8.42990760266246   10.38993843925052
C         0.82585258561717    9.47090335552059   11.25930294615028
H         1.12996565935916    9.42665909104021   12.29525545225463
C         0.10317456765465   10.55835486228637   10.80408522201545
H        -0.14327996371812   11.35904846570919   11.48504217696163
C        -0.30772974186151   10.62214507796972    9.48181719086991
H        -0.87242610220938   11.47284264811875    9.13281438804196
C         0.00644144407539    9.59214994508653    8.61152835153405
H        -0.31249682532222    9.63640575374295    7.58089286769850
C         0.72891968763013    8.50396570917913    9.06574550458944
H         0.98833324872147    7.70002109990346    8.38789033877982
C         0.56640460607723    4.77522759451366    8.24269379253141
H         0.46515573301015    5.59001328139732    7.53030498538750
C         0.22680884103599    5.03573469725230    9.55938520494422
H        -0.15049142033619    6.03017929847195    9.79413153113700
C        -0.24965467430040    3.98069880955189   10.52587371852607
H        -1.23912203435465    3.64123285231223   10.20093827753542
H        -0.37864141403213    4.44167015446441   11.50473715002651
C         0.70907844428097    2.78851386770603   10.65287434142798
H         0.36922404212387    1.96026147457626   10.02782346755159
H         0.69566251475742    2.43834877079993   11.68569620835599
C         2.13313571266969    3.13167399468416   10.26382842028773
H         2.85582550809738    2.88555806336011   11.03833653607727
C         2.58730342358474    2.99924849487231    8.92394631451783
H         3.60009848574729    2.61414525773838    8.80241965522420
C         1.69416790868372    2.53822401031747    7.79406447735111
H         1.41951574867531    1.49093149225428    7.95871823999502
H         2.27193859623516    2.56870243617940    6.86897082487051
C         0.43446067142034    3.40044155417690    7.62874619143062
H         0.21468243033596    3.51404823322366    6.56607973144274
H        -0.42171614424141    2.90318502341191    8.08835588510618

