73
CSD_code = HUHXUF | q = 1 | S = 0 | Stoichiometry = C33H34IrN2OP2(1+) | MND = 6
Ir        3.93304612109745    9.26891183120123    6.19195581689143
H         3.57653470388170   10.50065334725352    7.06934694929054
H         4.01996502484184   10.28948032823604    5.02466383912108
P         1.73035514510730    8.99396439812938    5.48345188190920
P         6.22331325555557    9.64909476021817    6.39002108506830
N         3.65050453409936    8.39859471001689    2.64875249121551
C         4.62351579021743    8.16780901963063    3.55954334218186
N         5.76791425262929    8.70369357749502    3.07732335863794
C         5.49319340101102    9.31704091226932    1.87521620688298
H         6.25003419080755    9.81888587193979    1.30981492944986
C         4.18515081289575    9.12864847204258    1.61049179023839
H         3.59541247738073    9.43634069981599    0.77271539148564
C         2.24913327760371    8.10636698589677    2.80963106967831
H         2.13234759534032    7.11712120838074    3.26419421811003
H         1.81000528957137    8.07176798655246    1.80859443394686
C         1.51657704359460    9.16409312140409    3.64544716247889
H         0.44631434329534    9.09974121127998    3.43212283137998
H         1.87460899725901   10.15691134973190    3.36263451971449
C         4.45894936635187    7.53823860518576    4.82258583850815
H         5.37718240348997    7.05613968887120    5.15230354161675
H         3.65249090803018    6.80776896525737    4.80381610452213
C         7.02493544543680    8.79295521442429    3.77505671572003
H         7.80355529591080    8.93190405441875    3.01963810116076
H         7.22232983535403    7.84936605340063    4.29420051035845
C         7.07047993870843    9.96298591600970    4.76654351593514
H         6.59879383006265   10.83816930975405    4.31297731958237
H         8.11662880250795   10.19533002305124    4.98324890062784
C         0.54573986553974   10.20580595153223    6.13802365507582
C         0.11076948640336    9.99056242959314    7.44502238376338
H         0.46630633075246    9.12219961492053    7.98530897087651
C        -0.76707834815445   10.87371777554482    8.04149371001014
H        -1.10538723931440   10.69862036745634    9.05132813302584
C        -1.20958497348936   11.98594029299018    7.34152158821568
H        -1.89661688573538   12.67693263677576    7.80509213697617
C        -0.76375884726338   12.21425126517650    6.05096846641876
H        -1.10051125332365   13.08551252212782    5.50969612530943
C         0.11678181036574   11.33217545712306    5.44713981693678
H         0.46479747902449   11.53215840564058    4.44522925196959
C         0.81319151128293    7.44155810401448    5.78303518334335
C         1.40678156804285    6.33971737180819    6.38493761597516
H         2.44091230983620    6.38562230310694    6.69552027424685
C         0.67705105992472    5.18379110934302    6.60549346352685
H         1.14735242428310    4.33392665865765    7.07658291996571
C        -0.65336055629403    5.12277338737595    6.22932627627492
H        -1.22305773881973    4.22308652712877    6.40274496654610
C        -1.25707457507425    6.22409345602441    5.64129752388264
H        -2.29855635462252    6.18384427019648    5.36095471875594
C        -0.53155102371163    7.37871191924792    5.42101068912913
H        -1.01452360914192    8.24352709462875    4.98735991052557
C         6.68722041542049   11.10454810915394    7.37396935726739
C         6.55796907607482   10.96355946174358    8.75508022017816
H         6.21602562054660   10.01930005039847    9.16026914851201
C         6.86550886660446   12.01504221876303    9.59508741857176
H         6.76887948156557   11.89839342116690   10.66369665956596
C         7.29592332689424   13.22073991702635    9.06193982259212
H         7.53821730437693   14.04395710689594    9.71616584133585
C         7.40782160362676   13.37069698104695    7.69044077155926
H         7.73449557053009   14.31213774879856    7.27513801598162
C         7.10064692999731   12.31937459693998    6.84237430595935
H         7.18284813058171   12.45831859100833    5.77515864438061
C         7.34333266573043    8.39930911614907    7.11429025739746
C         8.68118491217208    8.73743712507670    7.31197103757254
H         9.03175534127402    9.72634450167747    7.05033130687209
C         9.55418702340977    7.82293066063065    7.86817828407687
H        10.58782943772938    8.09324449259009    8.02112247533714
C         9.10322945264174    6.56483806368486    8.23822178240527
H         9.78637211262802    5.85354177478281    8.67572065590787
C         7.77330164739059    6.22759413657512    8.05767407422513
H         7.41486787512295    5.25414513349930    8.35648297335865
C         6.89617457607657    7.14242925099143    7.49991079363268
H         5.85571976422047    6.87732673890863    7.37676749092731
C         3.76710551939204    8.23686364352057    7.76693117114944
O         3.62678882347084    7.76142061669000    8.79739784481224

