82
CSD_code = HUJBAP | q = 0 | S = 0 | Stoichiometry = C37H39ClN4Pd | MND = 4
Pd        9.34784295982304    3.01780799404128    3.65950703725687
Cl        7.03998662442907    3.38739162810443    3.92009172292648
N         9.37045414428633    1.24539689835473    4.67571005210517
C        10.44497807333132    0.58815400668333    4.43154009574904
N        12.20657462319322    0.73487880925897    2.85058312130497
C        11.47607570640764    1.34736601085874    3.70869447940023
N        12.19091530536552    3.62549750418395    4.15112430911199
C        11.32239251373508    2.78406054557332    3.83843203828005
N         9.20272890731931    5.76730738464327    2.34986418626078
C         9.38963496145091    4.69186280002456    2.75703846566602
C        10.68653235651682   -0.84666334109398    4.74430819553179
H        11.18348905906574   -1.31013263660338    3.89369085247229
H         9.76040629384396   -1.36604964472397    4.98247151908650
H        11.36382458400940   -0.91978903397075    5.59566370076169
C         8.19091284672045    0.62428179388472    5.13140214999706
C         7.35322070430427    0.04758867410695    4.16929607453873
C         6.16414741327401   -0.52280671237658    4.59371942950179
H         5.49936936575549   -0.96123596534067    3.86412657871476
C         5.81913107953817   -0.52325650544579    5.93368307078671
H         4.88878905399382   -0.97117435260655    6.24885243361595
C         6.65089856371627    0.06684486103613    6.86807999321238
H         6.36791400113242    0.08396294999445    7.91035808975566
C         7.84528406284877    0.65488819510931    6.48160167522969
C         7.74164984196637    0.09789883137621    2.72059747430541
H         6.91567495411277   -0.22900033495664    2.09424019433748
H         8.60493103849972   -0.54071670449483    2.52055470777034
H         8.00445328846498    1.13319831378398    2.43282648644711
C         8.74908080941218    1.34511879481019    7.45712352606942
H         8.31784869465888    1.33866831058009    8.45445532251979
H         8.89624757155790    2.38095611598934    7.14445846744159
H         9.72727229434101    0.86352972732350    7.49608114824393
C        12.96245982733030    1.39401834781027    1.89603506732959
C        12.32488126561513    1.87902816321716    0.74446392456700
C        13.09910036801934    2.44737147115330   -0.25482981530843
H        12.61492252243763    2.82864672457784   -1.14322698501876
C        14.47468003603504    2.52879009548774   -0.13081287658710
H        15.06309916978234    2.97397457891522   -0.91900508676335
C        15.09349283384175    2.03501568666912    1.00428990949027
H        16.16785065403132    2.09791485184988    1.10280293516565
C        14.35327484853337    1.46406477873253    2.02523033946464
C        10.83692195014710    1.74342944118492    0.59008326308921
H        10.53357396419939    2.00726501390256   -0.42048583963299
H        10.28904704698845    2.40183412975501    1.29291018702069
H        10.53402627165745    0.71496650357417    0.79104035944669
C        14.99339339712226    0.95196223700501    3.27951350230560
H        14.67888843089747   -0.07347307647184    3.47056242627245
H        14.68036258038956    1.55741856063111    4.13116235772504
H        16.07725217435598    0.98532858967037    3.20462435945050
C        11.96656949151513    4.99866167500780    4.17396470610849
C        11.09283115090685    5.58984931988405    5.09854501285973
C        10.94151382497985    6.97053189256340    5.07446966322685
H        10.28245577430820    7.43910154140618    5.79178950355592
C        11.61182022358779    7.74932732233947    4.15117220091274
H        11.46233557717101    8.81843415924771    4.13370805885303
C        12.48520114261930    7.15549932493432    3.25586558842852
H        13.02368558659632    7.76556605234233    2.54472667927876
C        12.68496709854061    5.78568542040876    3.26309963208154
C        10.34444534269239    4.77439552141799    6.12017436846142
H        10.16087991760527    5.37198006690281    7.01172650532756
H        10.92080847367347    3.89121531804225    6.40551587334237
H         9.35852644807925    4.45836880088761    5.72476058587555
C        13.61613237621005    5.12214541678325    2.29659824857761
H        13.05774916089955    4.53437594244004    1.56711029920530
H        14.27410751254023    4.43160042563662    2.82084460240226
H        14.21696403336677    5.85704095272840    1.76699044401482
C         8.93059029438214    7.04707123525319    1.99881695596718
C         8.00039265941857    7.76089816979679    2.76626763065508
C         7.74338704392555    9.07318220273005    2.40113245413918
H         7.03178905980260    9.64909250946107    2.97377686480149
C         8.38355649401534    9.64790048299565    1.31650310127330
H         8.16921096203584   10.67169013101807    1.04889561782231
C         9.29532999520606    8.91992562482823    0.57009686988501
H         9.78710197903222    9.37682464434653   -0.27572444351192
C         9.58539890275474    7.60534848220275    0.89565931609518
C         7.34140491447579    7.11221871974523    3.93768773976173
H         8.07754987056418    6.92212650409495    4.71933771137832
H         6.91517912381106    6.14620746237707    3.66476732087224
H         6.55648883203366    7.74578037375332    4.34085301978081
C        10.56071737921373    6.78259337194935    0.11531770182016
H        10.07382874949195    5.89272861707032   -0.28387741525129
H        11.37323957372792    6.45088682669127    0.76099583614547
H        10.97525199235226    7.35535447288005   -0.70960288057748

