37
CSD_code = HUJDIB | q = 1 | S = 0 | Stoichiometry = C12H14AuN2O4S4(1+) | MND = 2
Au        3.12082549575568    6.08420909678102    8.50208614719760
S         5.79171637616704    4.10069333550768    8.20975684256675
S         3.95526602639977    5.67148571821296    6.35153829172807
S         5.05231145756037    5.31385790360368   11.22229507717553
S         2.26129143783896    6.42569735904336   10.65620343110687
O         6.95903832172285    3.31165615744235   10.21904657102599
O         8.67495395830857    1.92717669685397   10.49640868875661
O         5.57665141813954    2.36599806015568   13.98620133729627
O         7.63597378085741    2.14050075035696   13.15653280428799
N         6.01252852826213    4.12665254629052    5.69222433247317
H         5.84193027879498    4.33770840797733    4.71720654899593
N         3.32629735079965    5.76974384621132   12.99777289345035
H         2.45547525577837    6.03907742506930   13.43824607416098
H         8.51754928896790    2.06682172106118   11.45573265188552
H         7.51996003792050    1.21166675151455   13.42303981207324
C         5.24181645631396    4.63712030157351    6.66186474935440
C         7.03573765861200    3.30568118826287    6.10851821900067
C         7.07462150698171    3.17272080959975    7.45450473208734
C         8.02051512766605    2.36800982929194    8.27742170056992
H         9.06019791933010    2.60935626126418    8.03796934893873
H         7.89123371786184    1.29668879232792    8.09018207739672
C         7.81803286668424    2.59484090525598    9.75834205704850
C         7.92589461967803    2.68942886906952    5.09009373746853
H         7.34972337016145    2.04256107950202    4.42973578628411
H         8.70362200793087    2.09869072313231    5.56173250874168
H         8.39247517673813    3.46184577102093    4.48056045350239
C         3.47878380538981    5.85789134456800   11.66715999222088
C         4.39722201193788    5.27406155973768   13.70294449176367
C         5.44222611278785    4.97757232728784   12.89410068651479
C         6.74379080596681    4.34183070666096   13.23520716165315
H         7.16348147946668    4.78170430945851   14.14480477231462
H         7.45549993369631    4.47381104213540   12.42178965825240
C         6.55270396548908    2.85907406174689   13.50696030852406
C         4.30413282085610    5.10755238426873   15.17507889083758
H         3.58534955293122    5.80617999909731   15.59475668583534
H         5.27168183370658    5.27073030548835   15.64172455976281
H         3.98718823650403    4.09240165315431   15.41175591776560

