107
CSD_code = HUJDEV | q = 0 | S = 0 | Stoichiometry = C40H64FeN2 | MND = 3
Fe        3.30854463259593    4.43366134449183   18.70637316480358
N         3.65015326822542    2.50793023032726   18.45736167613605
N         4.27859386359479    4.15486574909456   20.41082116048137
C         4.49362026955494    0.10437101985360   18.69179815182749
C         4.29988877766588    1.57581023735132   19.12199547078726
C         4.93733700088787    1.90887795526365   20.31998527108903
H         5.47920445620879    1.12374523860838   20.80714722359378
C         4.92132701828885    3.14819163870248   20.96268929469603
C         5.64031976637286    3.16676616992509   22.32901223311289
C         5.96719971088624   -0.06713921205084   18.28735994972714
H         6.15884005620845   -1.10440232240232   18.01782210031849
H         6.63361082288361    0.20431981981673   19.10171412462314
H         6.20632161570031    0.55998959428320   17.43364748462582
C         4.19893154831123   -0.84112233135761   19.87317346793752
H         4.13634215783444   -1.86643939789467   19.51362145054012
H         3.25541424608445   -0.59276145770155   20.35268866759352
H         4.97873926403721   -0.81180694008557   20.62821420147504
C         3.62668899084276   -0.37033546591177   17.52211682293490
H         3.81251674794500   -1.43101216537397   17.35486498242759
H         3.86234755533142    0.15326322662916   16.60325737446673
H         2.56863288811784   -0.24362777681485   17.72788657881595
C         4.88553846013800    2.20072373042781   23.25784686837589
H         5.35676896878180    2.18141554518160   24.23904164136430
H         4.87612050773827    1.18835158315798   22.86563246527535
H         3.85424509770170    2.52456608044147   23.37744288635546
C         7.09331390098773    2.69156631760015   22.15732439518781
H         7.60520911170717    2.72974140490811   23.11712671205553
H         7.62609550265058    3.33821467468146   21.46324607580419
H         7.15714053976184    1.67300038571037   21.78806019607096
C         5.71354002928067    4.51764485636493   23.04661545418397
H         6.19117702197865    4.36912274539837   24.01496988049889
H         4.73211367413458    4.94288415141471   23.22265484403194
H         6.30708767636458    5.23689049621146   22.49197492427430
C         2.87828062614595    2.36049030830849   17.29968928303573
C         1.47540517943884    2.22057000250760   17.41338599850098
C         0.72637538914301    2.01707967775110   16.26613542563843
H        -0.33928602608774    1.86797900059194   16.33964941629849
C         1.31667475341456    2.01395919771885   15.01502736274057
H         0.71491137564148    1.85107175143918   14.13314910511337
C         2.67095681969775    2.25876226188655   14.89667838380691
H         3.11502808113163    2.30935260740606   13.91400548262022
C         3.46641536847349    2.42985638983602   16.01878639681504
C         0.80343425684736    2.33779586427387   18.76657836516899
H         1.44269545098219    2.98632018971049   19.38805889871816
C         0.68829450163962    0.98107105295771   19.46317996266441
H         1.67383194696375    0.58881707043851   19.69072778669133
H         0.16197939210393    0.26914908467919   18.82939567252573
H         0.13770667539465    1.08448000221296   20.39626825282496
C        -0.58109739888030    2.98031584101988   18.67193316251410
H        -0.55368409568587    3.87266181328859   18.05213653600514
H        -0.92645765738765    3.25902942312032   19.66464822306972
H        -1.30748070783721    2.28829750781354   18.25205211770640
C         4.93143186704491    2.76501148327734   15.86163979430264
H         5.39830005979803    2.72275404042825   16.85163507635004
C         5.67240615179451    1.81523337739822   14.91791009668254
H         6.73905286800769    2.03047750300406   14.94004105908201
H         5.32825926188710    1.93602883579741   13.89358135905112
H         5.52617063548270    0.77564336078492   15.20221360502618
C         5.04203837019627    4.20250948302068   15.34783938157877
H         4.48736263295582    4.86720590595115   16.00545436886752
H         4.62597527860128    4.28281936494468   14.34603801146526
H         6.08154249086470    4.51996593751212   15.31538995905212
C         4.19864028014164    5.47323208340549   20.85921273798067
C         3.06864690871175    5.91482341612965   21.57819335155421
C         2.99765044371820    7.24324746179120   21.97077900468677
H         2.14012934323511    7.59076426225224   22.52756971576928
C         4.01209068152702    8.13151940789426   21.67200256332158
H         3.94154634110211    9.16135231604424   21.98848747062322
C         5.12292284506929    7.70000688341450   20.96637793533715
H         5.90633454571663    8.40623078299573   20.74022333731929
C         5.23961249486942    6.38277820820506   20.55906878548038
C         1.96642534872656    4.95035496940088   21.95451413063009
H         2.24199628554916    3.95872921010076   21.57675663927013
C         1.78322251382371    4.86185752472869   23.47250845492954
H         1.02222483391467    4.12137157728075   23.71170251619559
H         1.46691051674166    5.81855368810107   23.88152684367437
H         2.70752929289988    4.57185441291244   23.96652129227992
C         0.64782778333069    5.36176172407883   21.29985768416038
H         0.76917974812715    5.40260229078550   20.22087730041162
H         0.32900495560436    6.34043502659132   21.65100021927130
H        -0.13215407005895    4.64275712084224   21.54093624023456
C         6.44204982302351    5.88554567660265   19.78848934603593
H         6.59494591043180    4.83405594047111   20.04985908373562
C         7.73123754453831    6.64604531320426   20.09595147346523
H         8.57725970821892    6.12872006442892   19.64763043064072
H         7.89978258553688    6.71137876291446   21.16895756065457
H         7.70317425851802    7.65321058889284   19.68709048899597
C         6.13276102390293    5.93939484884297   18.29183786429235
H         5.22559348498889    5.35603243325314   18.08600276451791
H         6.95480232569542    5.52114451019288   17.71608024754309
H         5.97517670048299    6.96857899443987   17.97717200027814
C         2.08631691063044    5.62675533355893   17.64428226327132
H         2.00530284236030    5.04625629248985   16.71236602052460
H         1.15058435307628    5.45439639980817   18.20090475671955
C         2.13209515297474    7.10894009073069   17.28244913121874
C         3.18370504290540    7.38591159662593   16.20593571922092
H         2.96762004300408    6.81772956604444   15.30352197952746
H         4.17333256704252    7.11150438851726   16.55893643014727
H         3.19426140318070    8.44353810290666   15.94743398967613
C         0.76023540030292    7.54380883098707   16.73888673675157
H         0.49085849196774    6.95198062234291   15.86582472071806
H         0.77814517177884    8.59332784068928   16.44945189499383
H        -0.01232744125477    7.41209349483838   17.49431302321667
C         2.45600437948648    7.93627812958017   18.52840142286235
H         1.70922451758952    7.77392543876778   19.30168062694716
H         2.48011754387066    8.99886553908520   18.29289918416209
H         3.42415046580512    7.64477336425748   18.92770887679272

