96
CSD_code = HUJDAR | q = 1 | S = 0 | Stoichiometry = C50H42IrOP2(1+) | MND = 6
Ir       12.54154330152645    3.85920369614683   15.31861645966646
P        12.89992868093084    1.98424831455963   13.89724537355704
P        12.18303625321295    5.57386916447314   16.92307496876674
O        10.66557334928935    4.94235363760159   13.17086714259265
C        12.84556497333890    7.21013403721805   16.45844544509608
C        12.80863591633266    5.27616988686419   18.59941729773648
C        12.68234960078950    2.25135914798248   12.10709600904385
C        10.44346353173447    6.05427531073902   17.18872841351187
C        10.18641951670563    7.14718977443775   18.01578265640504
H        11.01096877336032    7.66752816652859   18.48397490772069
C        11.23930824567801    4.53295116587314   14.07091010086425
C        13.96625166677915    5.03310255191155   14.37869427614028
H        13.57694545942405    5.82954499031960   13.74770277228258
C        13.75710170664859    7.93575677385159   17.21380493870747
H        14.14137041744533    7.53771838822808   18.14100743708050
C        14.00965294621320    3.06951938800062   16.51566202067050
C        12.33960770226190    7.75957017665626   15.28103204115448
H        11.60863506661704    7.20402922258056   14.70772306193464
C        12.33619216281698    2.20313536116703   18.16153552654773
C        14.48897023061607    1.11404153463398   14.00085762523519
C        14.78337554334170    0.36405300501227   15.13889639388903
H        14.05498164584081    0.28225099492516   15.93398827224457
C         9.38426541110035    5.39994174336151   16.57601827628574
H         9.57293403465675    4.56226447714961   15.91857268431420
C        11.96109940682804    5.07637160143062   19.68300905843455
H        10.88934378266516    5.12033877029276   19.55348691833019
C        13.66554222926892    2.37115120839527   17.62990236899029
H        14.45254111356180    1.93803372599496   18.24229632184307
C        10.88688963599077    1.69847560504938   20.02882189202680
H        10.77022621993074    1.39547108429408   21.05896556549071
C        12.14970262352476    1.79553727522632   19.48771413512656
H        13.01493989490908    1.57712829317239   20.09620985198731
C        15.42003058770226    3.14884675098778   16.22803014668684
H        16.07363307298378    2.52849521013877   16.83233779276799
C        14.18843435208320    5.17087539182094   18.77064068907123
H        14.84129512691197    5.28719884555267   17.91579750032188
C        15.99620256059033    3.95698444757885   15.31728245859860
H        17.07173920084381    3.94612066864720   15.21283301813044
C         9.28243865571312    0.25309546020107   14.54936254899229
H         8.26162881459510    0.59941376251975   14.60936422510294
C        10.30448717085823    1.15221424472110   14.31647714538406
H        10.07369686165132    2.20130068827801   14.17316638174260
C         9.57000544435786   -1.09439266928265   14.69960091418659
H         8.77460285720920   -1.79852743204517   14.88814836117799
C        13.86441306210854    4.73066108862170   21.10516121372495
H        14.27372823826741    4.52241776874944   22.08188087466622
C        14.71168278887659    4.90729036424938   20.02213694459974
H        15.78082349253975    4.83320484342485   20.15243862651112
C        15.44169796369236    1.24569913048002   12.99685519462006
H        15.22477077223609    1.83513764498454   12.11811597924181
C         9.92574683525784    2.35036057553629   17.94268427543808
H         9.05553188898555    2.53858686986055   17.32970440300381
C        11.19140567260049    2.46088146305468   17.40612485697546
H        11.29456727739038    2.66438453745436   16.32793535937629
C        11.90508614626148   -0.63817634320583   14.35578409488360
H        12.91799821808110   -0.99840143028965   14.25427202587277
C        13.05823857267110    3.62502928018942   10.16783202486744
H        13.45512438734356    4.52595364248218    9.72510013960143
C        11.62766959844864    0.71898780827292   14.23464034205484
C        13.19148771353378    3.41081621344592   11.52725158812994
H        13.69600875706565    4.13468740682181   12.15218376139581
C         8.88706137718440    7.56187580893950   18.23344676477943
H         8.69441187187268    8.40749188303083   18.87576150703540
C         9.75270402897512    1.98217541002272   19.27169087177732
C        13.67262437530906    9.72189450046382   15.60725091345227
H        13.99735874350283   10.69660739259231   15.27757567876112
C        12.75036934789006    9.00766812472675   14.85758971230647
H        12.35134630653230    9.42683715967619   13.94636269862227
C        16.00757505961787   -0.26568780408242   15.25367798578227
H        16.22810662332032   -0.85346216219760   16.13215093425539
C        10.87763747299316   -1.53614200290620   14.59167496511651
H        11.10246445823896   -2.58755892065451   14.68630141761465
C         7.83278935993676    6.89714405150286   17.62504873709271
H         6.81855572324074    7.22380959841485   17.79495961201903
C        12.49287624065232    4.81214083490670   20.93268101054980
H        11.83152806720697    4.66308866325387   21.77253129392366
C        12.41528771449055    2.68569171767762    9.37740418229022
H        12.30666016648026    2.85497641303027    8.31731547401076
C        15.28554868076355    4.89754057616033   14.49193008303229
H        15.91531428590796    5.57373916910839   13.92157197873041
C        16.66800348493355    0.61696099932695   13.12262483627577
H        17.40339652120656    0.71910957282099   12.33923425653246
C         8.08295262104369    5.81901417054839   16.79420224721808
H         7.26409191927347    5.30608441091218   16.31200415503097
C        16.95209208422688   -0.13975858568607   14.24675685220847
H        17.90888016440632   -0.62998049907218   14.34065656184421
C        12.04539261862584    1.30612797520711   11.30843042523668
H        11.65206461303403    0.39938887915870   11.74484986460271
C        14.16812291461850    9.18670436787101   16.78329514498972
H        14.87630207667415    9.74636714285673   17.37528858332004
C        11.91335502033969    1.52821204215084    9.94911833882396
H        11.41597407790642    0.79302209689531    9.33501035872682
C         8.38437234403023    1.85640814528348   19.86160267407483
H         8.38612293085788    2.15338533365235   20.90781502916887
H         8.05033363702242    0.81942361003913   19.81173355196369
H         7.66678593331086    2.46913521741633   19.32074819868459

