33
CSD_code = HUJKIH | q = 0 | S = 0 | Stoichiometry = C15H13CoS4 | MND = 7
Co        8.17599688173565    1.86257431245550    7.26266667783011
S         6.15264980312129    2.51106268654425    7.09761463338207
S         8.30235755981530    1.68883110519542    5.14359264573273
S         4.24522364805848    3.26343163341210    4.96995816123750
S         6.66230546821939    2.34550567267859    2.77499193925684
C         5.82183839293152    2.60153475849860    5.41488647304292
C         6.79149099480693    2.23136188441627    4.53354674632413
C         3.37519377600917    1.75511093717430    4.33015520904916
C         5.50816540195840    0.94423967482320    2.39337136850499
C         3.17965869277580    1.82443319226870    2.85325455578105
C         4.17543999453071    1.44452788264230    1.94861850102647
C         3.93480518149327    1.57201773147896    0.58472070066809
C         2.73395227235046    2.06540646563260    0.11186942867400
C         1.74832937432905    2.44228709715359    1.00756748336859
C         1.97552181316817    2.32044819251792    2.36499312720251
C         8.47798645414976    2.14696454112433    9.30677390302412
C         9.48964280766396    2.80796928318588    8.56637291020630
C        10.18727178909061    1.82957111863210    7.80991945105705
C         9.59727246869354    0.57288012467626    8.06936840774588
C         8.53522014555499    0.76909120669184    8.99531908233217
H         3.96002744174044    0.89762221369528    4.65532772757639
H         2.41689879480917    1.75458220955668    4.84782489031234
H         6.00258728389100    0.39533768575757    1.59304271576934
H         5.46843560467906    0.32229813667238    3.28481982707764
H         4.70861556409297    1.28400784458820   -0.11199309670150
H         2.57052966544399    2.15958585678733   -0.95100757704481
H         0.80770225794049    2.83397158285872    0.65108345890492
H         1.21062028746619    2.62031941551672    3.06651892786571
H         7.83315758246473    2.60197668662671   10.04088232200693
H         9.76077808304842    3.84802886255052    8.65673099563158
H        11.06862046299227    2.00180597319380    7.21367628538262
H         9.95905055681867   -0.37892148409537    7.71474033252298
H         7.95715349416521   -0.00906448491270    9.46799178525389

