40
CSD_code = HUJMEE | q = 0 | S = 0 | Stoichiometry = C10H17ClN4O6PtS | MND = 4
Pt        2.40412050355198    1.39956021367543    0.07224218151399
Cl        3.02030930058372   -0.19034253231709    1.51514179123893
S         1.69378768781800   -0.30482864339312   -1.24459100948886
O         3.82281925965602    5.10562693362484    0.95412111293409
O         2.54311273680115    6.52489745596123   -5.54165530480037
H         2.39889243018314    7.36334594581697   -5.09212147362038
O         4.04343049705746    4.57742060279565   -6.47133501829144
H         3.64300398066076    5.35629964150647   -6.88463618708620
O         0.94835400381498    4.03609830000136   -4.87837909695162
O         2.76836539256018    1.71829174110219   -4.14145096047174
H         2.25468516922998    1.04130915674750   -3.66629858656000
O         1.15841303502767    0.07786371247942   -2.56046288304532
N         1.71785568339206    4.36746666043532   -2.70932837708784
N         2.49096607672001    4.94994108273931   -1.78712290429083
N         1.92244400875080    2.91471995179360   -1.13905024983804
N         3.19241517356750    2.91317240487607    1.09422818596187
H         3.62979474690498    2.85826950710022    2.01108306831587
C         1.36687699610829    3.14163199939694   -2.31044731830690
H         0.71121408981829    2.48908823049946   -2.84832603326497
C         2.60310694919725    4.05922313319064   -0.83641894969590
C         3.29333996185379    4.11114915885510    0.50036553761761
C         1.44676490142342    4.98297077538583   -4.00024886590347
H         0.69614397708150    5.77363810637149   -3.86883224109233
C         2.76788735335672    5.51227032491743   -4.59627952071414
H         3.44670318102555    5.83961336429454   -3.80261090927024
C         3.29321729454576    4.26479405542058   -5.34698391342615
H         3.92855045446084    3.66649867247928   -4.68755937665795
C         2.00399804172864    3.46633009389582   -5.66304062028941
H         1.72804346122882    3.60120548916689   -6.71562639184162
C         2.16791292523525    1.96235787225668   -5.39483198297623
H         1.18410372312381    1.49093656078434   -5.46341406020533
H         2.81350434982055    1.55846455180101   -6.18579389003232
C         0.51831722880680   -1.48200993725023   -0.51599592103950
H         0.94723580177759   -1.82019263293854    0.42055728266740
H         0.36058444880843   -2.30171002293436   -1.20691212029585
H        -0.41416508525644   -0.95745246950756   -0.33690391996883
C         3.05588825826120   -1.45498129578371   -1.57968183390974
H         3.41200635585705   -1.83385317529455   -0.62844006842861
H         3.84175762602405   -0.89795140897518   -2.08110378494316
H         2.69393801944894   -2.24983358097419   -2.22185538649110

