65
CSD_code = HUJRUB | q = 0 | S = 0 | Stoichiometry = C35H26NOPPd | MND = 4
Pd        9.81398851802930    2.71046241047349    2.07276818587132
P        11.43171565552574    1.54408473698992    1.08248499995756
C        10.25008875614461    7.94297286048365    0.49554705863668
H        10.77267487209918    8.71380271107186   -0.05371732891307
C        10.00156912062840   -1.16177145142550   -2.33542197351523
H         9.64462887239292   -1.79089603724971   -3.13744135577974
C         7.39438921910482   -0.62294894123974    4.54891291656094
H         6.82016079238254   -1.31125286262574    5.15291865987121
C        13.66558069991131   -0.71004976163442    4.39405673866484
H        14.17728401893362   -1.21133020361789    5.20224166229105
N         8.37701293025922    3.79738403529281    2.98047296457189
O        10.64069420839382    4.46929180647159    1.22741908039085
C         8.88326717555782    5.95696349480932    1.93769530661083
C        10.76080825201059    6.67989719753476    0.55209151370575
H        11.68571618541301    6.42271604623309    0.05519058595815
C        10.92483717820592    0.43922483310412   -0.27116529291290
C        12.35056883396081    0.56620246414440    2.31484089729596
C         9.55712411401502    0.28977573656174   -0.48134206870752
H         8.86636139252906    0.82374103119861    0.17368324010790
C         9.15261491743620   -0.17703467645341    2.95698465594362
H         9.93901668430082   -0.58805174899753    2.33118295487299
C         6.59171944799514    3.51933352859447    4.68126520130411
H         6.37907500262544    4.57485986275558    4.76384167205534
C        12.73119886615856    2.51913537231655    0.26626318520826
C        11.82950816042068   -0.18713838556641   -1.12246112758670
H        12.89131411521112   -0.02608181179504   -0.99375415313453
C         8.39832827506758   -1.07059598598082    3.73639658085476
H         8.62600149277915   -2.12672012857778    3.68792809046864
C        13.01799810909509   -0.62833973257363    2.08183170219890
H        13.01427689138493   -1.07034375575714    1.09631773359679
C         7.85336903982332    1.64204782044018    3.81050861300869
C        14.92781983390417    3.47271710823613    0.11865699423671
H        15.93196924228934    3.57136116168274    0.50507335827220
C         6.08730605068817    1.28469269696382    5.44099828217784
H         5.50963846738856    0.61184315641494    6.05851132833247
C        11.36430884562149   -0.99211358470846   -2.14679123996778
H        12.06529464870633   -1.48351852416842   -2.80577513230828
C         7.09530855670682    0.75306547153119    4.60992488892315
C        13.25754053107758    4.05863668101466   -1.50347234342876
H        12.95937647315374    4.61724557494808   -2.37893350608153
C        14.02160795245704    2.64779670920626    0.76342227073932
H        14.31575599694353    2.10755188500148    1.65298205922759
C        14.54870136279583    4.17731550343868   -1.01115580179183
H        15.25720698652129    4.82612256609188   -1.50522805168613
C        10.10681040235455    5.62579503378634    1.25511147562245
C         9.04618401512915    8.25324091378158    1.14435026666812
H         8.64625240893334    9.25444858491597    1.09146481508739
C         8.90717797837016    1.17737490820856    2.97617906166532
C         8.12946317595861    5.05049437368941    2.72662633071790
H         7.23528396271684    5.49467880107566    3.17070376498382
C        12.33351560837696    1.11314584633099    3.59760604323805
H        11.77651962289323    2.04231779528886    3.76478729771810
C         8.39267978174347    7.27908443511749    1.84352803374436
H         7.46674081063166    7.51515899203286    2.35218322810715
C        12.99448465049031    0.48025324138527    4.63245132701574
H        12.98240296261585    0.90419782029940    5.62556387385568
C         7.57155913022177    3.03853323029991    3.83637316117758
C        12.35098206352699    3.23441305044828   -0.86704002097893
H        11.33448848349409    3.14458034091622   -1.22968429841655
C         5.85626540664868    2.63279415710513    5.47706530825303
H         5.09384619390919    3.03446693912052    6.12914108174866
C         9.09721784244180   -0.51280682048753   -1.50969441781915
H         8.03607417884378   -0.63039125900987   -1.67215239370541
C        13.67200736858813   -1.26336065477864    3.12466998901353
H        14.18661720589347   -2.19617659991389    2.94561206616487

