37
CSD_code = HUJVUD | q = 0 | S = 0 | Stoichiometry = C12H18N4NiOS | MND = 4
Ni        5.15207738271603    1.72451504261423    2.95528741562359
S         1.24880294891017    0.93771326909802    1.05293947786198
O         6.34292870555872    2.83321306660595    3.86367255218762
N         3.87082714687334    3.01294418506831    2.92861867501019
N         2.72491238298826    2.62524739198559    2.31164231139544
N         3.86923224316853    0.64198440260877    2.02702528373906
N         6.41652941683812    0.39377927153033    2.95517089671362
H         7.30702542048450    0.62928633340537    3.39769632740217
C         2.75057757015263    1.41248970315373    1.85966763267280
C         4.03009551411330   -0.63356853825164    1.62095133468990
C         5.20867176097125   -1.31875367635062    1.83573398803611
H         5.26477097743384   -2.33645556335363    1.48242319726970
C         6.35661805115938   -0.81583088265456    2.47821601459838
C         6.17303190508591    4.03216423850521    4.25817739911686
C         5.00997862345794    4.76556489872898    4.06960364383088
H         4.95992260821136    5.77584707602383    4.44007959795894
C         3.88996723209606    4.24634250809872    3.41313338890314
C         0.29212376173667    2.46583978135010    1.21425279482975
H        -0.66369199892431    2.26966539217880    0.73794996568686
H         0.16001791909872    2.69789787686442    2.26546001379671
H         0.81589936308014    3.27199339143739    0.71218608172491
C         2.93935544182814   -1.38435066634435    0.91442027173419
H         2.04537828991777   -1.44176769579444    1.53270186219678
H         2.67076124635954   -0.89132842199829   -0.01810857338174
H         3.26895473942641   -2.39433686215606    0.68862279962433
C         7.53575546525062   -1.74263929847841    2.60458985478104
H         8.38263747073716   -1.24441399132698    3.07188779119475
H         7.26293752353926   -2.60794805165807    3.20659319071901
H         7.83672235162649   -2.10105035706748    1.62198954905158
C         2.66376525426715    5.09274723312886    3.24193056514209
H         1.81436602690886    4.60372722439052    3.71588736425728
H         2.80657969205794    6.07703108837679    3.67647159834223
H         2.43293300369374    5.19047590578563    2.18257272990397
C         7.34407816733900    4.66159064195581    4.97572393481567
H         8.20837631776681    4.67414013094085    4.31395550764251
H         7.11689136885917    5.67397595047882    5.29229359251262
H         7.60138870521146    4.05846800111940    5.84457996841505

