35
CSD_code = HUJYIW | q = 0 | S = 0 | Stoichiometry = C14H13FeN3O3S | MND = 6
Fe       13.89204838755009    5.96412585218749    6.39370002859635
S        13.22150821322440    5.03762829478403    4.33434038966246
N        15.30579460392533    6.38743358776293    4.94258233626684
O        12.17756785742674    4.51017586898178    8.12064169511376
N        12.73430561584430    7.56187842569365    5.95560160375779
C        15.21524609952120    5.88146920317597    2.59675983343466
H        14.67365970920225    5.42635536218294    1.78332811653477
C        12.84107019906989    8.78855584335602    5.45105109629342
C        14.66542350544715    4.45844130326677    6.84450787577263
C        16.42508719296687    6.51044206378954    2.41703388346523
H        16.87099712796577    6.56807193637731    1.43509803309956
C        12.31181597840987    5.37618636543539    7.29700588184957
C        11.04273773229646    6.09830649920956    6.76648014456579
H        10.58914304273968    5.42874900772684    6.02606630955453
H        10.33304310535814    6.26291083629669    7.58236679746300
C        16.47803942946139    6.98237518920178    4.75750835571577
H        16.94234938008901    7.39832483620745    5.64144109887865
C        10.68411505532645    8.39423098283684    5.80542142495932
N        11.43030389907439    7.33752428473566    6.16830873740869
C        14.68105432847292    5.82251585643876    3.89026684354754
C         9.20671623759131    8.40986135382671    5.93502243111935
H         8.76775038954712    7.56195538787403    5.41042970622713
H         8.80848956941291    9.32914052995725    5.51588609747289
H         8.91198867994571    8.34732524395039    6.98271171873653
C        11.56587398953395    9.35079535777676    5.33607533431498
H        11.32333766531647   10.32472620804874    4.96372364110903
C        17.07871182741213    7.06705897055344    3.51798335034162
H        18.03446543302475    7.55274891689240    3.40839952047104
C        14.50791944954518    6.63759848493632    7.88834119484676
C        14.15033991278628    9.40150094701827    5.11095116645573
H        14.90314315178853    9.07798153491379    5.82615293392643
H        14.07048295154384   10.48520861214770    5.12955020908309
H        14.47078137097305    9.09690399237236    4.11459658652651
O        14.89504471729503    6.98338406991314    8.91001929157769
O        15.14394419091155    3.48300879017109    7.18674633185030

