79
CSD_code = HUJYUH | q = 0 | S = 0 | Stoichiometry = C30H38Cl2N6O2Pd | MND = 4
Pd       19.40147268351649    0.00133538450654   15.93276254965844
Cl       18.88101347648055    2.19779547378262   15.46518402266575
O        19.58856666028598    0.89622192877958   20.74125457140599
N        21.93047347865535    1.62863690937621   16.72478108893634
N        21.28406084994365    0.38391774734546   18.34628123094021
N        18.25485237155069   -0.46670083709496   19.52342529070139
C        21.02336727704608    0.68147175097138   17.05278064370447
C        22.71722312861320    1.93363294274807   17.80160751672197
H        23.49591658866340    2.66521222804186   17.76171811037857
C        22.30878262970500    1.15165563757455   18.82324672826881
H        22.64571190401115    1.08418358153253   19.83652712143857
C        22.14286252960450    2.23200392467642   15.42245572884482
H        21.44451448350972    1.72721296426612   14.74316988879093
C        23.57759233949434    1.98928146687014   14.95690650029660
H        24.27758353998180    2.59794829380779   15.52429650669323
H        23.67195220307724    2.25557176120913   13.90780452670306
H        23.85017958922137    0.94377469427068   15.07192742248369
C        21.82380302758187    3.72453461375778   15.46044728326680
H        20.78163854644054    3.87632203645131   15.72755782038287
H        21.99517005314359    4.15943297147642   14.47953039163692
H        22.45360016100049    4.23800770821439   16.18296456365386
C        20.63167956314856   -0.60329609042898   19.16826169105996
H        21.34793855621913   -0.95039049211425   19.91765598210503
H        20.31988100712333   -1.44262387536350   18.53952448588040
C        19.44273185106265    0.03412060801204   19.90242318549254
C        17.00245307267520    0.01188661064588   20.05564770618270
H        17.25881941603367    0.77362043420232   20.80112100656744
H        16.48200501960381   -0.80662556567727   20.56789014600018
C        16.10251679966860    0.61320601947321   19.00642842522094
C        16.60610412028309    1.04427124062217   17.78778269572192
H        17.67408243020276    0.94957635182251   17.57569289125908
C        15.76875115618059    1.61444183312234   16.84358038373104
H        16.18144911159362    1.95443243393196   15.90543931061185
C        14.41813107726014    1.75889988354417   17.11006556078383
H        13.76471712147597    2.20564627046950   16.37529812000662
C        13.90828970353896    1.33092235939026   18.32526716766251
H        12.85557567627199    1.44227622800318   18.54006289800369
C        14.74545150766698    0.76065762228270   19.26708775270228
H        14.34617694101495    0.43034333573397   20.21556341020642
H        18.22432138162499   -1.16827038159578   18.79523197356882
Cl       19.92249424794022   -2.19389503860285   16.40499766491121
O        19.19917278083263   -0.89544158046030   11.13144880472867
N        16.86883438854441   -1.62156856896424   15.13887919787669
N        17.51170115369151   -0.36910746031622   13.52198353345278
N        20.54260423159054    0.47293906634858   12.33228331583408
C        17.77784624060464   -0.67569134602829   14.81233866916172
C        16.07514192918738   -1.91641877942682   14.06436658778073
H        15.29363370637153   -2.64500171321666   14.10382046693625
C        16.48134771543418   -1.12954236836853   13.04563482808883
H        16.13904919028721   -1.05417059066118   12.03472378037224
C        16.66366863663214   -2.23705797107953   16.43666912553218
H        17.36519332823268   -1.73847821432424   17.11708872510854
C        15.23125402263787   -2.00085067598270   16.91235866890514
H        14.52939467420904   -2.60869766732141   16.34641534422629
H        15.14431714517658   -2.27280030881111   17.96065845678424
H        14.95497865450429   -0.95562415684288   16.80422927718832
C        16.98456233400441   -3.72874215211776   16.38251686459878
H        18.02629095210221   -3.87647569030660   16.11147311087462
H        16.81620440866784   -4.17388393560240   17.35933496110433
H        16.35373170454524   -4.23552694543211   15.65617232051364
C        18.16772792860673    0.61602533372462   12.70046921156369
H        17.45200592049069    0.96807334609971   11.95286927426095
H        18.48534710284789    1.45277186459806   13.32969896751851
C        19.35143616958374   -0.02804908463032   11.96364715088039
C        21.79098781101976   -0.01495441671915   11.79900855276070
H        21.52842425640899   -0.77755793287594   11.05660222498512
H        22.31529823513162    0.79874327740107   11.28315302631563
C        22.68952021629029   -0.61856898756225   12.84832032938757
C        22.18653475764902   -1.04108945595628   14.07018822145110
H        21.11965734828743   -0.93841320196573   14.28514845267956
C        23.02275833624269   -1.61283459914765   15.01446714763960
H        22.61066931163004   -1.94538585045994   15.95552885656104
C        24.37144217511423   -1.76831000961208   14.74455425771194
H        25.02379015561819   -2.21634481183635   15.47947877356201
C        24.88048497626745   -1.34984813571556   13.52574508207504
H        25.93155965373346   -1.47043942453479   13.30797523013093
C        24.04462464256838   -0.77734272407222   12.58414914893815
H        24.44332224417727   -0.45450446496918   11.63285983681407
H        20.57887427895231    1.17951736712221   13.05518825045650

