37
CSD_code = HUJYAN | q = 0 | S = 0 | Stoichiometry = C18H12Cl2N2O2Ru | MND = 6
Ru       -0.88734455734859    1.81612059926238    8.43346618510316
Cl       -1.42075672839994    4.15035518728630    8.42058178560905
Cl        0.04831292001352   -0.39423952146839    8.47903672717799
C        -0.00394860044097    1.97044807625265    5.54703765645724
C         0.72383908095638    1.12391774432035    4.67964418725874
H         1.55278824936054    0.55497221308818    5.07456791035810
C         0.32780271962749    0.97745044018772    3.38276212997238
H         0.86485289753096    0.31073636416053    2.72394778550007
C        -0.78632505776525    1.68080610598056    2.87519427699615
C        -1.21212910710265    1.54855580883186    1.53842313268333
H        -0.66365988630576    0.88924760649822    0.88122973530200
C        -2.29955842716122    2.24101516203007    1.08196974078228
H        -2.62026912982016    2.13469928854861    0.05625590700225
C        -3.01072852594495    3.09605974595867    1.93968654509187
H        -3.86723971559356    3.63265473893922    1.55980903036136
C        -2.62408703912901    3.24784919926740    3.24140351595676
H        -3.16594544577114    3.90068537520355    3.90932519840418
C        -1.50756484812706    2.54477977881708    3.74374201856125
C        -1.10122226124075    2.66416149906532    5.08369175239817
H        -1.63229125553375    3.33554016767714    5.74747576380231
C         1.59660293649911    2.26886267078508    7.21419190034615
H         2.39405956144590    2.33150310242069    6.47634851289354
C         1.89632693828054    2.42213722111580    8.61626504978668
C         3.17973209500712    2.66681784572967    9.10590287145321
H         4.01040994236118    2.71942909260948    8.41972000204273
C         3.35632696555467    2.83392825776178   10.46583054143498
H         4.33713966650587    3.01968902467608   10.87529148494249
C         2.24334356705712    2.76142302526453   11.29226370183118
H         2.33267649374873    2.89211948503613   12.35843099084475
C         1.00034978057373    2.51149875594449   10.73170080906841
H         0.11937176998744    2.45227377715963   11.35846384600267
C        -1.90978901272657    1.49689745463741    9.95698766445894
C        -2.33045211317128    1.29069911847273    7.38084823524638
N         0.36380171360326    2.11253416515173    6.88609420600542
N         0.82296911174158    2.33954450459622    9.42876303118641
O        -2.51807914645616    1.28525044095452   10.89571081662965
O        -3.20131555177423    0.93227647776428    6.74123535103826

