39
CSD_code = HUJYOA | q = 0 | S = 0 | Stoichiometry = C14H16N2NiO6 | MND = 6
Ni        7.79236180143950    7.91817178726125    9.40769482082798
C        10.54697181277480    8.47398131541286   10.06242466050873
H        11.16158707163548    8.56082825088294   10.96560630895235
H        11.08966078735801    8.90876817277679    9.21813345448984
O         9.29129520460459    9.12659684343897   10.27163526019533
H         9.33258844331495   10.03359283613579    9.94793499657772
C        10.30958771111118    6.96574662725285    9.73544208069660
O         9.11837089514694    6.64479230830330    9.42721845506501
O        11.25602942986265    6.20626872605740    9.76576861758256
C         5.74081309528503    8.64034564846277   11.58602714529831
H         5.59203202680703    9.24332300945175   12.48655460936690
H         4.90047760242295    7.94590202124404   11.48826235355911
O         6.91455601052805    7.84275923879887   11.67583418344607
H         7.62228096287273    8.38190523451683   12.05278312409428
C         5.72346761014767    9.56976284415461   10.33949370749855
O         6.53312091248282    9.27546709419040    9.39924714148922
O         4.94766056559207   10.50630929703944   10.31258106901645
N         6.45084378237185    6.57243693939806    8.95326270372147
C         6.38547283375103    5.44782391500803    9.66291891320019
H         7.13505006221672    5.31679634631254   10.43134184358006
C         5.41429202274966    4.48643534680020    9.43506616572867
H         5.39335276530274    3.59121927867197   10.03605880433923
C         4.48093241093870    4.69609365403895    8.43303332592316
H         3.70998966288698    3.96703264017738    8.23294230477484
C         4.55953105144495    5.86554723160434    7.69364847992444
H         3.85592263219129    6.07331312010033    6.90320992128545
C         5.55890334995122    6.77817302701922    7.98676708315805
H         5.64056530840259    7.70843913878418    7.44084890631533
N         8.47040925608466    8.63490241733961    7.25260211619318
C         9.29772232552406    7.90663332299893    6.50854127194656
H         9.64872117477668    6.98287974497964    6.94909041851357
C         9.70490817243640    8.29010152053777    5.24020427600632
H        10.38058904920393    7.66605491188427    4.67674642526252
C         9.22936442352846    9.48282321645701    4.71949248718221
H         9.52767253199504    9.81416198909998    3.73545881788210
C         8.36173590439193   10.24045853077321    5.49004478621017
H         7.96357360841409   11.17434901640323    5.12516324016050
C         8.01092379150702    9.77710619539231    6.74816050605061
H         7.33046193655820   10.33059724084231    7.38225521397316

