102
CSD_code = HUJYOB | q = 0 | S = 0 | Stoichiometry = C27H50B20NPPdS2 | MND = 4
Pd        4.28813936545070   11.00905809286399    7.59716339461920
S         2.43044059182047   10.45728764608924    6.17093096110950
S         5.94433363231962   11.45130233810257    9.28183067861373
P         5.65284491753625    9.59056909988623    6.47943845120699
N         3.14084593837149   12.43301466872078    8.47716066842565
C         6.92166281066771   14.11778965789539   10.05503262798815
C         1.41379791434335    9.46186174712165    7.27509405440127
C         4.94152336724717    8.19127388574241    5.49794351414876
H         4.63290654560900    7.43702606829538    6.22453686415863
H         4.03468252091072    8.56428625026382    5.01636143087271
C         6.75018524404299   13.00224400014646    8.87890042303323
C         6.57694674736016   12.67279333215835   12.09408379581968
H         7.31753760558883   11.97776718673578   11.73580481613672
C        -0.68848000941100   10.78390927074576    6.31584186158128
C        -0.19134948307680    9.70384567707472    7.21411145255135
C         6.27902606829132   13.82284052211739   11.36537825566978
C         6.58398850841541   10.54448851705718    5.20550164954825
H         7.20159333345080   11.27638975874042    5.72894000519814
H         7.24260119667394    9.88309837067058    4.63941450210450
C         5.86035857925240    7.55247311945176    4.46403773948528
H         5.38225734099509    6.66137857523501    4.06145764812734
H         6.80949106812744    7.25219928980316    4.90220148482196
H         6.05747364927159    8.22614878713398    3.63467930530317
C         2.58032221752241   13.36317873025061    7.70613161365930
H         2.75223939230373   13.28306083166052    6.63679223668601
C         5.30065114129136   14.67628239292495   11.87626902034415
H         5.03274426932772   15.57027958655035   11.33564119248583
C         6.96959092642377    8.76272676387685    7.46773209843791
H         7.57040619331592    8.10916393396684    6.83160856309987
H         7.61692599998094    9.54631890428082    7.86687378078248
B         6.92723938987057   15.72814260505364    9.39012365746946
H         6.48830091881566   16.60236269311878   10.04126805549322
B         8.41996289972815   14.94774634995543    9.88536177282919
H         8.95702666526382   15.29242245976837   10.87282038075826
C         5.92350466309030   12.38826665681319   13.28010068140454
H         6.17098881371717   11.48470636481633   13.81728200118359
C        -0.47733484225950   10.76003946782284    4.93883671645145
H         0.04617016829389    9.93664813139461    4.48294622037248
C         2.95011983178103   12.48644644265050    9.79419860452179
H         3.42727614572619   11.71735593211016   10.39135679518083
B         8.31602448501497   13.23520373577453    9.53936752426222
H         8.73897933607021   12.38912024465576   10.23066002845758
B         8.32244208698311   15.81743787226271    8.31902792736563
H         8.88491162136060   16.83540668482715    8.14372564377735
C         4.65548306556662   14.39726797031055   13.06623981641891
H         3.90627661011013   15.08166611982310   13.43803616975129
C         2.19183793999794   13.47686431327887   10.39324538010310
H         2.07207664413524   13.48229922853186   11.46433973959981
B         5.84888173827467   14.48870363394995    8.78589638441284
H         4.70762199337814   14.43971964957246    9.05613087946903
B         8.09973893374178   13.01412721292567    7.81351931474045
H         8.42173142504614   11.97631954874617    7.36134403902785
B         8.09663392309653   14.59554208143165    7.03318764836227
H         8.50207489143107   14.73255438941655    5.93691183197263
B         9.18934908537461   14.27503804119198    8.41885389325969
H        10.35627657077170   14.18126741726933    8.30856457860420
C        -0.91843377209438   11.79096879967606    4.12866729959286
H        -0.73429142525949   11.74491108066200    3.06538219427211
B         0.45043043861669    8.23748844936337    6.55552988855180
H         0.51694740997299    8.11634204796385    5.39200228529115
C         4.95964083769253   13.24752916346140   13.77465022964286
H         4.45016690476077   13.02445503395773   14.70023758093461
C        -1.35766751789212   11.88684637547984    6.84698728226790
H        -1.53086713373554   11.94965155537034    7.90979318515918
C         1.60177057718926   14.44438701545392    9.59507845787941
H         1.00130499084088   15.22868765930044   10.03009366310957
B        -0.92629434387006    9.42580078799874    8.76557828340271
H        -1.87352788997483   10.06030029130411    9.05081706087206
C         6.33687905970720    7.98652280371172    8.61829723349547
H         7.10032888836226    7.61051144992897    9.29550197267443
H         5.75463399644285    7.14263817784918    8.25484893511745
H         5.67163346810791    8.64517457230292    9.18143906449090
B         0.41578946645301    8.99585614307193    9.85058923251225
H         0.41451392470140    9.28738654392107   10.99087547376748
B         1.90198856684656    9.04104042056011    8.86608019653527
H         2.99479193499300    9.40385078739575    9.19356332783885
B         6.69517773220729   15.51052213423605    7.64043398402420
H         6.10286087054884   16.28949035868238    6.98660249796886
B         0.62640914774119   10.22507793264352    8.61963618807591
H         0.75898155446598   11.38871400068515    8.71344223628514
B         6.55784258442748   13.75516849830882    7.36179589075915
H         5.81728908833395   13.20121609208953    6.61341360129468
C         5.59884272681229   11.26961996294888    4.29242447606595
H         6.11578355198375   11.97865250216580    3.64948397644479
H         4.86834872833479   11.81807261296991    4.89886770917828
H         5.05059973292562   10.56798429976484    3.66734960599934
C        -1.80422467955373   12.91393373622656    6.03711773508963
H        -2.32173465546850   13.75317474413440    6.47928825302134
C        -1.58597366120050   12.87360364519290    4.67101439239144
H        -1.93022129377176   13.67801885363074    4.03812613200074
C         1.80067605868594   14.38247843357354    8.22420156842636
H         1.36202115963858   15.11109533327361    7.56177897620733
B         1.76826842136431    7.80492420059254    7.62020013712563
H         2.74333207879605    7.35545372011495    7.15010753396467
B         1.11872954491022    7.48293626779899    9.23065848781226
H         1.62857260392789    6.69536682205978    9.94025453633521
B        -1.04393889826170    8.23518004598065    7.47492950082363
H        -2.06205036533916    8.10047864952738    6.90226135948095
B        -0.64531033852593    7.73151349303285    9.14881253937811
H        -1.40808364573150    7.12540626217852    9.80762674511379
B         0.19916319897964    6.99207099995921    7.77372442358456
H         0.05511777416322    5.86976498641562    7.45379489027470

