103
CSD_code = HUJZAN | q = 1 | S = 0 | Stoichiometry = C53H45IrNOP2(1+) | MND = 6
Ir       -0.38582895414354    3.10754845939121   11.05367057624779
P        -0.06056075725384    1.58680263266682    9.25175821220795
P        -0.39290039962420    5.04416546388933   12.44562769935279
O        -2.32050150279883    1.56152247575752   12.81965108518833
N         1.69153761364847    2.65640597606125   11.70480972538859
C         2.15819662467922    1.80670998475609   12.61377848559066
C         3.53061358191920    1.68349036795756   12.86469649706697
C         4.43155578413537    2.45371223532271   12.17798930742491
C         3.96157791136089    3.34469410238093   11.20822049287915
C         4.83255384433158    4.15606756107703   10.43171498537494
C         4.34358600213225    4.97689459941584    9.47475138245230
C         2.94613667536280    5.06293353680457    9.22329460271242
C         2.42875085432724    5.90996179800418    8.23505401989193
C         1.07356976897345    5.97169269488251    8.02698342295412
C         0.19900694338428    5.19655248342257    8.79140800978483
C         0.65163442024228    4.34234774376771    9.78240031388373
C         2.04913633438583    4.28390590211674    9.99083094113789
C         2.56735166817542    3.40888542852873   10.99461185044287
C         1.21493944639040    0.92780474561529   13.39241254745645
C         1.25516209203207   -0.50995861638831   12.86581178549188
C         1.51238203821622    0.95319394106564   14.89418559902955
C        -1.46628335896090    2.03723641767204   12.22246495857242
C        -0.57508767637893   -0.14760833593263    9.50966192705843
C        -1.84977030763968   -0.33131173512735   10.04074815024638
C        -2.36148410293087   -1.60327270491661   10.20943149813766
C        -1.60514228496076   -2.70552494398181    9.84237854208541
C        -0.34874783477810   -2.52757953840085    9.28858801033168
C         0.16703658604130   -1.25451130662590    9.11300062078922
C        -0.95537022466456    1.85991293569376    7.68546813733579
C        -2.01789885714530    2.74539045676538    7.57684674933866
C        -2.70179775728186    2.86771165829199    6.37920759960777
C        -2.33535081929797    2.10001332411947    5.28747278589791
C        -1.28647065578356    1.19961465546532    5.39636892851703
C        -0.60181684451938    1.07389193040007    6.58917301724412
C         1.67272086316742    1.50592064331288    8.70839899447666
C         2.10129961789181    2.29096774356515    7.64119369482074
C         3.43500831251628    2.30134812010748    7.27842591958830
C         4.35517711301419    1.54027154813699    7.98088697379555
C         3.93812595016662    0.77025898320427    9.05374464545589
C         2.60546568666343    0.75874690344645    9.42275726150435
C        -1.08285880379528    6.58241982521526   11.75914255074611
C        -0.64271654906465    7.82271348742012   12.22014470017608
C        -1.21072480816530    8.98468838267045   11.73093214801145
C        -2.22702370619051    8.92368130713411   10.79067631564607
C        -2.68712473274493    7.69359775590257   10.35132496787317
C        -2.12072617229255    6.52820224811877   10.83607615226914
C        -1.26784729075880    4.91347951356747   14.04572424646347
C        -1.08010053080029    3.77338576889370   14.82381536267579
C        -1.71252818900512    3.64059775285106   16.04515768184900
C        -2.55450283576523    4.64240485127303   16.49964130597974
C        -2.75882102560392    5.77194363394810   15.72561363232653
C        -2.12210066710202    5.91129743403226   14.50455672229798
C         1.30256448159816    5.51690966205081   12.91497825816471
C         2.04468979165194    6.32238098084236   12.05236171731542
C         3.36950299071753    6.60133119688217   12.32992780538683
C         3.97329592883192    6.06578686717947   13.45613318235462
C         3.24010229099461    5.26764945968427   14.31795107236662
C         1.91040003886397    4.99404480234750   14.05106306910483
H        -1.73695186125125    3.52627108974220   10.48143991291998
H         3.86907349109856    0.97613750522672   13.60328085615168
H         5.49160862421003    2.37417300460375   12.36713188411480
H         5.89264095622048    4.08798792050733   10.62406805242355
H         5.00674541816831    5.58626339130973    8.87860001795650
H         3.10692489184868    6.50940761123318    7.64621169601176
H         0.67107816132989    6.62479059298789    7.26662380116071
H        -0.85724561972759    5.28534907283120    8.58771641116158
H         0.20005342518807    1.30235474427040   13.23184559556273
H         0.62795428618183   -1.14474915817516   13.48692031415352
H         0.87495223959184   -0.56030134084335   11.84680689910193
H         2.26885545220579   -0.90468823039816   12.88592836500792
H         0.67208314504980    0.52975387811430   15.43964540835961
H         2.39186724708910    0.36091286177248   15.13273842401672
H         1.67890357476948    1.96877207332603   15.24760056414249
H        -2.43912431234564    0.53698076481537   10.30534467364772
H        -3.34936851307035   -1.73598506838068   10.62316005240370
H        -1.99887752191403   -3.70092175039525    9.97778255314819
H         0.23467848087133   -3.38364585405899    8.98495019845816
H         1.14328584152403   -1.13291017049467    8.66648996837030
H        -2.31002868349812    3.33419051309912    8.43325657005372
H        -3.52507128766997    3.56148734711268    6.30033273024537
H        -2.86848243803225    2.19624849330687    4.35423705589461
H        -1.00491330293423    0.59130873389910    4.55031628304467
H         0.21138662421322    0.36593030199734    6.67239281284589
H         1.38808915919313    2.89702044900656    7.10063358952950
H         3.75774640651971    2.90990065451664    6.44756567688493
H         5.39584521058222    1.55009864016624    7.69575655275302
H         4.65234378258069    0.18025747318031    9.60879653631549
H         2.29088943324930    0.17016047854893   10.27259990858863
H         0.13720457081983    7.87962029424430   12.96671192682789
H        -0.86207820185605    9.94113159005345   12.09006326277509
H        -2.66459885869429    9.83346275186009   10.40957876818302
H        -3.49071148257496    7.64208274971560    9.63242241333500
H        -2.48587963982314    5.56622667532510   10.50758583875836
H        -0.43756862720843    2.98252063911770   14.46644872301607
H        -1.55405401414310    2.75323881132389   16.63951809682291
H        -3.05416648248584    4.53889725969479   17.45026776102951
H        -3.42045012957407    6.55139943569962   16.07147715500064
H        -2.29695295734495    6.79595405235063   13.91149894068764
H         1.57833298887362    6.73929692417040   11.17090046768402
H         3.93307549582059    7.23444015042381   11.66164638512156
H         5.01043014402665    6.27744462157158   13.66595379062074
H         3.70332011431250    4.85888935236700   15.20359810556344
H         1.33966116200215    4.38811346748939   14.73935415258507

