61
CSD_code = HUJZOD | q = 0 | S = 0 | Stoichiometry = C24H30N2O4Pt | MND = 4
Pt        8.29730520481340   28.60510401788604   -3.46444651590669
O        10.10882068060553   29.03619448580156   -4.31335306718142
O         6.38484812623622   28.07626218485219   -2.91315413667150
O        14.04372566257452   28.21626503686653   -6.61137266724176
O         1.85665572161540   27.32118837230411   -4.08458125468131
N         9.01539803109367   26.90218979673667   -2.72060682115222
N         7.59926330426295   30.36844466802966   -4.09154853729132
C        11.07177002213244   26.84359119325566   -4.02967244997593
C        11.02080955834121   28.16588464224435   -4.57428671493929
C        12.07399728541099   28.55398119617455   -5.42674065596666
C        13.10917760376108   27.70684336298862   -5.76426212776387
C        13.14469863862026   26.40717974019603   -5.23290200684277
C        12.14608704640558   26.01075046006781   -4.38358755382460
C         5.29104583533096   29.65656564743333   -4.36456816624713
C         5.35176772054190   28.46396418663736   -3.58421720080549
C         4.17658898482556   27.68579342842447   -3.47743754825064
C         3.01358682292199   28.03213758364837   -4.12695767368587
C         2.96877398037264   29.20533415101109   -4.90421819734362
C         4.08068755704344   29.99215010072629   -4.99739295340087
C        10.11787837081363   26.34771610064853   -3.09943151849400
C         6.37622893335234   30.57663314331359   -4.43517474811873
C        15.11793210548016   27.39912460510293   -7.00760511952640
C         1.81994675494597   26.13877111448624   -3.32350855269803
C         8.29650926543465   26.27994156045000   -1.62849164435915
C         8.70349406844171   26.86465984639990   -0.26462938944267
C         8.36903409062231   28.35310463498621   -0.09643382679093
C         9.54789367002347   29.27109734670778   -0.42993473869233
C         9.20999097230529   30.75946906745391   -0.29105859962884
C         8.40943470776786   31.31158078597276   -1.47396309001020
C         9.28600574125100   31.52076484814842   -2.71374796270460
C         8.50365834454113   31.49681546368904   -4.03711123444170
H        14.77195583761626   26.50780171776346   -7.54091368068228
H        15.73160981324330   27.09638913621655   -6.15289808879299
H        15.71830016233585   28.00897307395591   -7.68121418223547
H         2.01810748536497   26.33726878222178   -2.26542579383664
H         2.53877871681631   25.40140800080908   -3.69447005189854
H         0.81010974796397   25.74660060552099   -3.43460230851808
H         8.49582168318999   25.19936929653724   -1.61582132672636
H         7.22825758132138   26.44454995885164   -1.78181808980840
H         9.77491997441578   26.70808780593601   -0.11416757175241
H         8.17443323023441   26.28531361243433    0.49473583067085
H         7.51785778269206   28.59233844439913   -0.73689890110926
H         8.06891467508028   28.53798183226850    0.93796668853163
H         9.88245587984484   29.06784151612911   -1.45180135492112
H        10.37592683494735   29.03332982038444    0.24319895057034
H         8.63922385915699   30.90582143551242    0.62908353290926
H        10.13635102512926   31.33090462597574   -0.19642631567520
H         7.94174511334247   32.25730786912477   -1.19047023169747
H         7.60796839407840   30.60483725502321   -1.70508341754941
H         9.81194619052205   32.47496469580246   -2.64407260612464
H        10.03728680004560   30.73372392945232   -2.76316088903246
H         7.93949726973726   32.43077052689032   -4.16146583931127
H         9.22451452615780   31.40828228049324   -4.85652098888733
H        12.05625275157688   29.55049576494559   -5.83854217437090
H        13.94148212674138   25.72399944255629   -5.47721607257475
H        12.17680023902615   25.01259185177883   -3.96807490637239
H         4.24652403352735   26.79897810877092   -2.86725508054077
H         2.04745410793435   29.45815692227752   -5.40209899667766
H         4.04415742586701   30.89959545477284   -5.58378050951038
H        10.38125360972168   25.38601031952433   -2.64848579424076
H         6.10437831047841   31.57600314102627   -4.78820315575463

