72
CSD_code = HUKNIK | q = 0 | S = 0 | Stoichiometry = C31H34ClN3PRhS | MND = 8
Rh        8.24021607635538   10.35393317072783   11.71264521509503
S         8.44443713970161    7.99873887827747   12.07503285819097
Cl        6.10924799710508   10.32208938925406   10.70844898855903
P         7.17448288924502   10.35541849510083   13.72900066768790
N         7.53260295810925    7.72854742927177    9.59938057464431
N         9.07653257966434    6.17185484783211   10.22395737138555
H         6.91430728909477    8.48353241129922    9.89314129145421
N        10.89799369036936    5.09204055156010   11.44114541502499
C         8.36781509985836    7.20941211158578   10.50155010540219
C         7.29516528193066    7.12297907445857    8.31461839375569
H         8.15009255119057    6.50021122402739    8.05505652293018
H         7.16194649084185    7.90343227576905    7.56558963438417
H         6.39926053674455    6.49611264367010    8.33413189378960
C        10.01665927859538    5.63801398677109   10.93543928127215
C         9.55899046037160   12.19919259950042   11.86599127942657
C         8.89920685293234   12.19198162315590   10.61055661727366
C         9.30166150800505   10.99634804090147    9.89460061310246
C        10.24328088527095   10.30210871317726   10.69608375110296
C        10.33860767587104   10.99036099379636   11.95549423872574
C         9.60153526608315   13.32184076543605   12.85317332448584
H        10.47791655500299   13.94051627503652   12.64963598357716
H         9.68153308315535   12.94713008324221   13.87195738115245
H         8.71619023553745   13.95015998151028   12.78737719172984
C         8.10173241071150   13.29383070200232    9.98868688525331
H         7.91235934537375   14.09807541582654   10.69578387129799
H         7.14837014836254   12.92360244522880    9.61137584304399
H         8.65629251774455   13.70247820039707    9.14227862848351
C         8.96183651147374   10.73235240535520    8.46124254158105
H         9.51516092808999   11.42366672994466    7.82258086257119
H         7.89798102389688   10.88204800138283    8.28310017632025
H         9.22219196151885    9.71556778142218    8.17822574878840
C        11.10352499746489    9.14922879200791   10.30039430397208
H        10.74822442978240    8.67683856416186    9.38783874020168
H        11.14562057888667    8.39234686153165   11.08285918428333
H        12.11982081391841    9.50958156586430   10.13076823056819
C        11.36675000134253   10.68037625973895   12.99360262243962
H        12.34533918164732   11.00685658239676   12.63567574509881
H        11.41764741230728    9.60979396159996   13.17983083372838
H        11.15551925752243   11.18834248596469   13.93095091259761
C         5.96780465103497   11.69178157658624   14.01276487424483
C         5.86459411306612   12.74272059716176   13.11154592101998
H         6.48477604798248   12.74175561865423   12.22600769494776
C         4.95988208102250   13.76566016186390   13.33411452560648
H         4.87810425712122   14.57788825379778   12.62652600971570
C         4.15486515134418   13.74285616470243   14.46022442110969
H         3.44583961267603   14.53865078944286   14.63406016349275
C         4.25299264217839   12.69432575552935   15.36212336372793
H         3.62149537746918   12.67459016746695   16.23817814146685
C         5.15370197926005   11.66941127716131   15.14199245301572
H         5.22800319696196   10.84822435399548   15.84125391187381
C         8.37134005920012   10.57356723253075   15.08060861399380
C         9.28781462316386    9.54332898882239   15.28822901477037
H         9.23044328837989    8.65649633782991   14.67077262349227
C        10.25006589636049    9.65877720445866   16.27292268521650
H        10.95217276294556    8.85503612181146   16.43623345790800
C        10.31685418424946   10.80921421685537   17.04532969923783
H        11.07071874693316   10.90160435329595   17.81291541496775
C         9.41931224361811   11.84160314063817   16.83019771768661
H         9.47392554018284   12.73979302147057   17.42817489213499
C         8.44733797568998   11.72901093003714   15.84942695077675
H         7.74321999446479   12.53373162414572   15.68848261536854
C         6.21330009957186    8.90213209008184   14.27028425941488
C         6.33351937360921    8.36639828440639   15.54882496150509
H         7.03694080104304    8.78446529758597   16.25463561236774
C         5.55380963562816    7.28594075693247   15.92205380048099
H         5.65721077232853    6.87300072778918   16.91499778615302
C         4.65043942948938    6.73357632440174   15.03054106373510
H         4.05031551877284    5.88543419430726   15.32506210473559
C         4.52098802080739    7.27048218979408   13.76026487931840
H         3.81750694938423    6.84422006058455   13.06061636024664
C         5.29505761228160    8.35069399291919   13.38127601073829
H         5.19719346099571    8.76568587337218   12.38915427108371

