59
CSD_code = HUKPAE | q = 0 | S = 0 | Stoichiometry = C16H26CdN8O8 | MND = 8
Cd        5.53726450693994    4.12414476471996    7.61784303111402
N         6.59800729550544    1.88141370753514    7.51307970514280
C         6.49170117013737    1.18539935990432    8.80010647854836
H         7.40702631949239    1.33189231326319    9.37137325495484
H         6.37947219976400    0.10141198436527    8.65580909534673
C         5.29481566304570    1.68927113178545    9.61057368168673
H         4.37826647809151    1.52416950045485    9.04026446618166
H         5.22904334900381    1.10208281716479   10.53985269193326
N         5.36588497676640    3.12442234746853    9.90311501711992
C         4.08144619284015    3.56857890834418   10.45962054963909
H         3.86840706066579    3.05282132152085   11.40852321352568
H         3.30955406061649    3.30348224351428    9.73754710100025
C         4.02523847027436    5.07762649024381   10.71054918590948
H         3.00860435890431    5.32425544548641   11.04547812899790
H         4.68777045691708    5.34158287356367   11.53879826098316
N         4.39124135671789    5.83981098684651    9.51322395954529
C         5.19836514370271    7.02250130713965    9.81855893161337
H         5.88427264018774    6.77789126440159   10.63474386926199
H         4.57724703631129    7.86943371776970   10.14737939343157
C         6.03589737302833    7.46796448940188    8.61383840408080
H         5.38858642349197    7.72664614395086    7.77270803737331
H         6.62819441774520    8.34998068362385    8.88728345540586
O         6.87911654741179    6.43523783071007    8.13918664771545
C         8.15224008012274    6.36380346296484    8.73971154635561
H         8.07631165913033    6.18573031004211    9.82148429330733
H         8.70117367183133    7.30153070018753    8.57066907213988
C         8.90945663910026    5.21290126549638    8.08910077819177
H         8.86923356749521    5.32613021836693    7.00039179159320
H         9.95506827204843    5.22698420860155    8.42813181977641
O         8.28949617332623    4.00116255752087    8.48411207039339
C         8.89597347052963    2.82683398801701    7.97427493367408
H         9.19777801638973    2.21185320256437    8.83468177004882
H         9.80644953982528    3.07182890005678    7.41918416869711
C         7.97855527425475    2.03633863030734    7.03361956220986
H         7.91627338920609    2.57805503287989    6.08725657518807
H         8.44971742346245    1.05693204258727    6.85886724330791
C         5.83788890505213    1.14924884722197    6.48976030134669
H         5.83262955313912    1.72452214348704    5.55698379904274
H         4.80115931414286    1.02929088246321    6.82121371603298
C         6.37833643399689   -0.16978129955797    6.22761454990298
N         6.81951619677375   -1.21052473422312    6.05460435793719
C         6.45954427745184    3.41318684141756   10.83510586934332
H         7.40927446731837    3.11553173753391   10.38931334312095
H         6.51628695670141    4.49078852232191   10.99946849037567
C         6.31664331422934    2.75500952625203   12.11834478303233
N         6.19182990376841    2.22778058200255   13.12510812972646
C         3.18453398738613    6.20020136984474    8.75419527057275
H         2.62860753753189    5.28590812348135    8.52547825788024
H         3.46786638864864    6.65694192819100    7.80262034295510
C         2.32360080155288    7.10797640186900    9.48209055521014
N         1.68196738458915    7.82372971582296   10.10273165935203
N         6.04773576073135    5.60657870900792    5.73199223960859
O         6.75708931358270    4.62120755912446    5.99015026696496
O         6.37147404884442    6.38106888467193    4.87810113052246
O         5.01355550423875    5.78265328898423    6.39040745526158
N         3.29966250926842    3.37572606288210    6.26210219667104
O         4.29318875167821    3.38759669381862    5.54326236649565
O         2.17840123104014    3.32443893977341    5.83938434394392
O         3.49275678404711    3.37571312083733    7.51462438930486

