61
CSD_code = HUKQUB | q = 0 | S = 0 | Stoichiometry = C30H25AuClO3P | MND = 2
Au        2.78056706783324    6.30858612905287    5.86075329386338
Cl        1.28399693762387    7.92777807914532    6.37536378434320
P         4.24193806860424    4.68132647522679    5.36708981943051
C         4.82039997557069    3.74234761237404    6.80371019602139
C         5.08550399103980    4.46869404815093    7.96160125631741
H         4.93168096402928    5.54075968538639    7.95949993539055
C         5.53641163380599    3.82482334311563    9.09699472724369
H         5.74392035887257    4.39717358257940    9.98944374440879
C         5.71769337129598    2.44618758782630    9.10506083391187
C         6.19750532386535    1.73458288712632   10.33107830180578
H         6.38793570009893    2.43430843279640   11.14017340434667
H         7.11538422683652    1.18845595156776   10.11735767814127
H         5.45288883850714    1.01237162237147   10.66324495475617
C         5.43621576626310    1.72764670912822    7.94669759181601
H         5.56712732833646    0.65474918468028    7.94455394752364
C         4.99152721833131    2.36186995271794    6.80309981986302
H         4.77461300571031    1.78881152596650    5.91236426904415
C         3.61140423532214    3.41494320318625    4.23634073708894
C         4.43772376146037    2.70938169719400    3.36599535245018
H         5.49659462125896    2.92693687984556    3.33462942559540
C         3.90663999334921    1.73619926237870    2.54367639921453
H         4.55100627895693    1.19351519946645    1.87130282747696
C         2.54145547176163    1.44965582196824    2.57388686709627
C         1.96350372273624    0.40995042437032    1.71546820760149
C         2.47221225598825    0.27263116187365    0.34517083640341
O         1.89357864600703   -0.68300109891840   -0.44177884465204
C         0.90322526207020   -1.49428141386059   -0.01135333570759
C         0.39267785761746   -2.42761907068371   -0.89779315461045
H         0.78053621851490   -2.49044526247851   -1.90056123432091
C        -0.62731259041271   -3.28648582354742   -0.49565432163780
C        -1.12695970703289   -3.20216061842887    0.81162580205734
H        -1.91447638906509   -3.85958145309099    1.14216098485186
C        -0.61492435624634   -2.27482140692001    1.68731943184836
H        -1.00276426341222   -2.21103059266045    2.69297077067378
C         0.40469887492117   -1.39970527898197    1.30064560154063
C         0.97311996581176   -0.40998077058770    2.15192505503232
H         0.60913778282906   -0.33695864304033    3.16747232431327
O        -1.06269742672602   -4.15808188936374   -1.43004568889980
C        -2.09809622153391   -5.05765593209180   -1.10360694119914
H        -1.80595262324379   -5.72793424055707   -0.28956408741907
H        -2.27162673257700   -5.64211168565087   -2.00545584086181
H        -3.01764722042325   -4.53011277278790   -0.83275289566368
O         3.34935278155610    0.93758559096068   -0.14716452399502
C         1.71813805858806    2.17049239599799    3.44134928574589
H         0.65434132286403    1.98433523063018    3.44957157265203
C         2.24628138902234    3.14449336877945    4.26245436461906
H         1.60615779059465    3.71459331515646    4.92420570280169
C         5.76106684541285    5.24091948703476    4.55716644629624
C         7.03868271093908    4.94670325294661    5.01587317567133
H         7.17098405836591    4.34086439947372    5.90184728647071
C         8.13932341091251    5.43391310165224    4.33438932982696
H         9.13154478927785    5.20217978200725    4.69478406704398
C         7.98995414699072    6.21731730234183    3.19689333921758
C         9.18251714073985    6.72293629788072    2.44799338128429
H        10.07489505011574    6.69467247269988    3.06780266017334
H         9.01919927425824    7.74274790173138    2.10683673671860
H         9.35749712749100    6.10198136605843    1.56908107823363
C         6.70384426784199    6.51430581083581    2.75193270514356
H         6.57389658009247    7.12737986188229    1.87199250989930
C         5.59923564664674    6.03891620627377    3.42589899467283
H         4.59882041377661    6.27734434983390    3.08638005106203

