63
CSD_code = HUKSUB | q = 0 | S = 0 | Stoichiometry = C15H39BrCrN4Si3 | MND = 5
C         7.60340098450320    8.15754577689530    9.88962230566048
H         6.58904685554326    7.74232174774292    9.80003633582440
H         7.61891058460631    9.11187212381239    9.35211767282625
C         7.93443572168511    8.38251164266882   11.36953133568631
H         8.90032047438731    8.89183542040418   11.41599090470029
H         7.18422611158113    9.00772061096896   11.87066710723832
C         6.80116255123195    5.10899801889000   12.59218801905992
H         5.85552203275629    4.73342169825388   12.99455025860961
H         7.61328549579542    4.69153358240781   13.20585958850758
C         6.82604307017628    6.63878078837366   12.65245331415411
H         5.96990481698159    7.00701780436843   12.07971289237986
H         6.75808719729517    7.02255001056577   13.68101993721969
C        10.39438209249653    6.46910137536031   12.03887713264617
H        10.69920004017210    7.26716492996408   11.34089469357708
H        11.24407811556541    6.25756140100071   12.69388020327221
C         9.21141782745439    6.96052968494744   12.87386112844654
H         9.42895552836475    7.91531351831614   13.37101458566215
H         9.00952612349524    6.21084298337668   13.64213433640337
C        10.14363530414223    9.57144249349695    8.42229999346530
H        10.49984198522387    9.79432157144024    9.42367261126116
H         9.29518148654681   10.21699692079130    8.21978896019063
H        10.92831093322445    9.84896267681598    7.72793195799583
C        11.32248028916247    6.70442559699133    8.35224694033583
H        11.38997358160146    5.97717114671434    7.55055196754432
H        11.34592294519480    6.15057008600766    9.28592021776101
H        12.20413222739517    7.33600122001492    8.30531455691383
C         8.90818015708024    7.49137197392750    6.46324977598808
H         8.68933242938134    6.44353527995229    6.27708334308115
H         9.57665454752395    7.83402023956361    5.68031712899767
H         7.97948623653596    8.04936945054718    6.37285167106712
C         4.04964955800092    4.19450056231405   11.28361031958249
H         3.82881832653160    5.17463798005812   11.69565013776432
H         4.06966131999082    3.48331724063316   12.10242588031099
H         3.22215837965473    3.91867769783469   10.64013479941961
C         5.37314279762462    5.29526972039114    8.75658903179322
H         6.29873364633974    5.72817568304601    8.37975977962605
H         4.68699709092538    6.10795317612822    8.98565302968828
H         4.93553371999869    4.72422198462329    7.94440045489497
C         5.94856835664880    2.33585669369772    9.74675709979287
H         6.76985138273009    2.23712799930830    9.04512758973166
H         5.05407938555210    1.95318829964632    9.26539870874154
H         6.16188030211292    1.69761451410650   10.59997536447214
C        11.72248237643576    3.77610560211876   13.14064917538999
H        12.58303461597141    4.43647240083756   13.15937136280724
H        12.08650546310288    2.77369623439481   13.33409968998677
H        11.06930571022879    4.05123557264225   13.96291182818999
C         9.54543967412537    2.39688014173741   11.42843659165885
H         8.53604869926226    2.79366911713267   11.51747660554043
H         9.70679996465154    1.68847840341488   12.23492110925809
H         9.59364048649888    1.85170377169063   10.49221225202506
C        12.17781998295226    3.53030061820599   10.10844680203704
H        12.92490482555542    4.31934361974951   10.10742131480960
H        11.74212689168957    3.47683948413630    9.11604235817498
H        12.69327744423206    2.59312489063698   10.29407369012049
Br        8.85036322383921    4.19609258435213    8.50482448231595
Cr        8.38889020303123    5.63800123642155   10.32977792277691
N         8.56898308792512    7.21416842507591    9.40189165027608
N         7.01067263570950    4.75102294894643   11.21797317384556
N         9.98440487936311    5.31663623391476   11.28612673079824
N         8.05192903698642    7.06533751053768   11.98892740562588
Si        9.71659770931183    7.71723051996958    8.18421843191659
Si        5.67456238221109    4.15308942681869   10.27120545651530
Si       10.83439869370611    3.80611793089468   11.44256889363704

