141
CSD_code = HUKTAJ | q = 0 | S = 0 | Stoichiometry = C66H60Cl2HgN4O8 | MND = 4
Hg        5.08512754868440   10.56730038276923    7.57342266805641
Cl        6.50066380029873    9.29184000620895    8.86050681896175
Cl        2.98794454050364   11.18312665333454    6.93353915549626
N         6.21462584912591   12.73609995142053    7.98692816950769
C         5.65213271171876   13.89908563928885    7.66502127865777
H         4.72598017121808   13.84226271699684    7.10831494364396
C         6.20473485929967   15.11737789918508    8.01688599804361
H         5.73243087827616   16.04929388574370    7.74826645250793
C         7.39500889263923   15.13035727922331    8.73876728863478
C         7.98159994685050   13.91397676334372    9.07345254040407
H         8.90270751221806   13.87889075260320    9.63224400779336
C         7.35365591345368   12.74650478284642    8.67618125289457
H         7.76907423856293   11.77743882701900    8.92130910764429
C         7.98942559645331   16.44890958751846    9.12745877635003
O         7.52622237887581   17.50509199906064    8.78296748993768
O         9.06118381135258   16.27321555690028    9.90032688440752
C         9.80141850585954   17.33772289022244   10.41218348795568
C        10.04166031997363   18.50806365344821    9.70772720000046
H         9.61527866333289   18.64952805056891    8.72825241660649
C        10.83150824123156   19.49891847714642   10.27237618507115
H        11.01428980311131   20.40878329272530    9.72165211780627
C        11.37861875213315   19.30508725904179   11.52519370335233
C        11.13203815471690   18.12532082848406   12.21897658586134
C        10.34695633401898   17.13133521475609   11.67542611733581
H        10.15821627723723   16.20687801702690   12.19914516169531
C        12.24044035470381   20.24136945451702   12.33413946801662
C        12.75648495947207   19.33153001906685   13.47367143994682
H        12.81040895255228   19.86841328453124   14.41895050521688
H        13.76076987366782   18.98110103057230   13.23013981935890
C        11.80927154751334   18.11179745043789   13.56205341052744
C        13.39467931933135   20.82102706773738   11.51702841237184
H        13.97086599796926   20.02480257939127   11.05071025364909
H        14.05551390734396   21.39858963305880   12.15980622427984
H        13.02017179053258   21.47698967370195   10.73514121744212
C        11.37033261910879   21.37817444991472   12.88160079140582
H        10.95792905515438   21.96485712447231   12.06400928322841
H        11.96133831691575   22.03627589279760   13.51501728481583
H        10.54307250627692   20.97855368035025   13.46289996890987
C        10.79438679849708   18.16978952449318   14.72919741266376
H         9.81798257722641   17.84614837763093   14.36538488997460
H        10.68702797347230   19.18091297058813   15.11766974356265
C        11.28349288327673   17.19358063125874   15.82436010202691
C        12.23596384984837   16.29793886172405   15.07316802525718
C        12.54241867274016   16.82405166575331   13.82383181383318
C        10.11951895568464   16.41729602955206   16.43935045387977
H         9.61997661068550   15.81487664167624   15.68386494416564
H         9.39595255874535   17.10543723966717   16.87124008219829
H        10.47297685523855   15.75564025759071   17.22612622666794
C        12.05164743082110   17.93628494795015   16.92331069668784
H        12.45092424173652   17.23012665037310   17.64761724652708
H        11.39342827427632   18.62888774276068   17.44365201792258
H        12.88325963072838   18.49262971563485   16.49736635223645
C        12.80978067579977   15.11164762129039   15.48703502859253
H        12.58274092840442   14.69300116057422   16.45538420009734
C        13.68528687738377   14.44822269626909   14.64213231710025
H        14.13707093108596   13.51671448672144   14.94524098688695
C        13.98014076407378   14.98171932733704   13.39601199785177
C        13.41394369277150   16.17719546901273   12.97163842244629
H        13.65047701667229   16.57142602543291   11.99496724335492
O        14.89617951008815   14.36719963106589   12.54548016858638
O        13.81230231539027   12.38940408754781   12.58327130451876
C        14.74502477732915   13.06770060637170   12.23705985227190
C        15.86756556367610   12.57300796419898   11.39445388926498
C        16.99650830055653   13.34329815259355   11.12647808814822
H        17.08993103193077   14.34212886952903   11.52158473145202
C        17.99252800571736   12.78229100300589   10.34260029494375
H        18.89124338757440   13.33744115191954   10.10579142932683
N        17.92598086866456   11.56259378398527    9.83724164782509
C        16.85395424211580   10.82996397644660   10.09193832852261
H        16.84033641810058    9.83736244427493    9.65886703179940
C        15.79696844716965   11.28658445969351   10.86588188784860
H        14.93378073274302   10.67142810781747   11.06596809196110
N         5.89875497305886    9.37409911221894    5.53026903437782
C         7.19438390995370    9.42786291421632    5.23513433792492
H         7.74183287886050   10.26470475772315    5.64879880645062
C         7.83178934839202    8.47877621894760    4.45695536327260
H         8.88585458864839    8.55637020988670    4.24426165694647
C         7.08527953878524    7.41037254667136    3.97045199837178
C         5.72847220636794    7.35575201867316    4.27200485458802
H         5.12971899008094    6.53452629820501    3.91019580628432
C         5.18100684840080    8.36290408019308    5.04779536408123
H         4.12693533342459    8.36578636043370    5.29672710141221
C         7.71029907852575    6.31004231306640    3.17413878213207
O         7.21503431377690    5.22351290108926    3.03346518300605
O         8.87168029952131    6.70810375834501    2.64702983715825
C         9.67962051459442    5.78921771169349    1.97358786197666
C        10.03772997127005    4.58770237679658    2.56750114102475
H         9.65776882857123    4.31550543737470    3.54021568897793
C        10.91202125824016    3.76625624118291    1.88507011605161
C        11.41868719271182    4.12408086963014    0.64146126398780
C        11.04186737515974    5.31706105372760    0.05437590979429
H        11.42260458489138    5.60570137718940   -0.91326008725954
C        10.16973218656746    6.15648697908537    0.72851351258424
H         9.86668234951166    7.10045931710262    0.30301917917649
C        12.34696201949343    3.06167134620116    0.10893765400819
C        12.60953632524452    2.18527112628445    1.35602511694055
H        13.55409876223159    2.48209777358964    1.81500274340057
H        12.68138416060528    1.13156485580853    1.09391637909686
C        11.46097702927539    2.44933864567266    2.35847988307729
C        13.64546838805008    3.64726761386227   -0.44467432838502
H        13.45111819528615    4.24041642727805   -1.33488685431170
H        14.33268914415725    2.84725803295662   -0.71110453296539
H        14.12398733043634    4.28473925930757    0.29562532482218
C        11.62726162858644    2.26804308091977   -0.98718924032349
H        10.69737659935363    1.85207646169288   -0.60773017854831
H        12.25814626790712    1.45619497465839   -1.34269764524108
H        11.39091132772794    2.91526079612716   -1.82878675115012
C        10.38819540118231    1.33645559920830    2.41122507721088
H        10.40083225499661    0.72112433295534    1.51359686169875
H         9.40343397866187    1.80030880537703    2.48732855477860
C        10.65676596591323    0.49327770446637    3.67984490046726
C        11.48417120151761    1.42624622336567    4.52771024557870
C        11.93490148621393    2.51194062772691    3.78571578071402
C        11.47736810896541   -0.75961246021813    3.35498177201688
H        12.41383665987631   -0.48827669925981    2.87391129480761
H        10.91821123420881   -1.41813920831222    2.69362296430016
H        11.71070387757612   -1.30381454961006    4.26720632019270
C         9.35091030098135    0.09324295942528    4.36579775628067
H         9.54914686774249   -0.51267749012345    5.24643605754660
H         8.73233500640807   -0.48648012043972    3.68412316648951
H         8.79507432919502    0.97610284608421    4.67353588662325
C        12.70085040087609    3.50256390834913    4.36441354476367
H        13.04019797175913    4.35944716962524    3.80236525353190
C        13.01316081422007    3.38784931231289    5.71399640335498
C        12.58446152087973    2.30074318191127    6.46124419526774
H        12.84121124227842    2.23219709629243    7.50636924518857
C        11.81983317504210    1.31152379518247    5.86239032791453
H        11.48324382448049    0.47099924551334    6.44941606972221
O        13.70186360425758    4.45229819648705    6.29100656508014
C        14.72514039276602    4.23545654827090    7.12899127632035
O        15.19845497222050    3.15704385225032    7.37885544494506
C        15.22391012673011    5.51411208456178    7.71169740756730
C        16.40956728603934    5.50195920089990    8.44189601489608
H        16.95446803651248    4.57902025609398    8.56232503551326
C        16.85016626753311    6.69281342984666    8.99581171163802
H        17.76526077020802    6.74061363124538    9.57077838758192
N        16.19617591598427    7.83498011950387    8.86844594753312
C        15.06981307464498    7.84411492466841    8.17631159459721
H        14.57368741254060    8.80331772246411    8.10565292062854
C        14.53537864711794    6.71615829059049    7.57391577069865
H        13.61120942215594    6.76228022741990    7.02088912372425

