71
CSD_code = HUKWUH | q = 0 | S = 0 | Stoichiometry = C39H28NOPPd | MND = 4
Pd        0.19762172427646    8.02773460867367    3.23988711971762
P        -0.96282391603726    7.90785869418335    5.13567212375097
O         0.76772672804555   10.01826205196834    3.69319917545675
C         1.30056289629113   10.84874541882215    2.89467778308401
C         1.67080283851150   10.58305257395074    1.53453758841555
C         2.11937354736610   11.67744395496101    0.70345949440527
C         2.35137467378531   12.95060414653208    1.28064559591816
C         2.08457240625124   13.14858336531183    2.66329130011188
H         2.28425201300892   14.12312123937043    3.08818911330679
C         1.56625242400654   12.16107044313541    3.42210052604811
H         1.32549138339826   12.30730788903444    4.46585429223636
C         2.76704059089014   12.62230301954360   -1.43980339952301
H         2.90545404080046   12.49618659037367   -2.50419925357925
C         2.31889613978921   11.56594994537749   -0.68485625064290
H         2.09402984376160   10.64428768256592   -1.20046213255303
C         1.68681809735150    9.27351050398622    1.00346623247004
H         2.12686167828573    9.18261758038432    0.01272367214943
N         1.28794997981819    8.15969006700066    1.55961478192707
C         1.47017679388493    6.92321763275782    0.93488717623799
C         0.68866362019030    5.87004723244870    1.49301955755854
C         0.73492066313168    4.57590675906970    0.92242966935855
C         1.59873027380087    4.35073510771246   -0.17007482352276
H         1.64635930441079    3.36241769616262   -0.60446555989944
C         2.37836082565178    5.36342743809402   -0.65868502336594
H         3.05424571908991    5.17762681567466   -1.48127509958846
C         2.32290086570142    6.65341540836120   -0.11662511694041
H         2.97525012472681    7.40986870308856   -0.52794680766861
C        -0.07395764421961    3.56834692763076    1.48568977638975
H        -0.05015728484517    2.57655024429229    1.05644830921499
C        -0.87251850678615    3.84948096567493    2.55903073369329
H        -1.49642269857078    3.07674896868987    2.98706597796805
C        -0.89311979041323    5.13301068443628    3.13120817661582
H        -1.53915571770184    5.29830387500893    3.98822039913593
C        -0.12295375016427    6.15514015891939    2.62533061903844
C        -0.41208406588254    6.48815417291297    6.13443036875184
C        -1.18423673988708    5.77292376259040    7.03921378507661
H        -2.21882150318071    6.03831155384870    7.20068619784002
C        -0.62770465482396    4.70216383389030    7.71909598350303
H        -1.22933679090511    4.14050024350265    8.41884766308270
C         0.69283335711459    4.34639417853001    7.50190058066489
H         1.11900765863678    3.50897130808549    8.03414994050260
C         1.46606405039582    5.05524722152281    6.59430174649160
H         2.49242317272334    4.76899189274740    6.41889746620732
C         0.91361785451139    6.11906889967251    5.90795505342291
H         1.49591457460738    6.67989107941267    5.16804219675691
C        -0.77099055522098    9.32093447471179    6.26439336958525
C        -1.27236671476278   10.54089591967395    5.81573586021023
H        -1.78140415835159   10.58099848380683    4.86022879943835
C        -1.10495659008973   11.68157050256252    6.57535658934105
H        -1.48974308932038   12.62786428354777    6.22332281797151
C        -0.43272541155776   11.61293739027740    7.78657661354648
H        -0.29622537731592   12.50572438158070    8.37929752815577
C         0.07213830576968   10.40332619100853    8.23246146242331
H         0.60096420716632   10.35280248144931    9.17338754538538
C        -0.08951879115596    9.25680378587487    7.47287192466215
H         0.31532030990734    8.31484445960347    7.81724692061729
C        -2.77297156431071    7.83276883030491    4.97392468156598
C        -3.27945010262508    7.68542546270400    3.68578093131473
H        -2.57656165077469    7.61127060364087    2.85352590876984
C        -4.64643646371041    7.64652807267664    3.47888687218184
H        -5.04049109206173    7.53070115873954    2.48011232995500
C        -5.51053890596528    7.76198995389893    4.55642383973708
H        -6.57825738554880    7.72915553426705    4.39727994032518
C        -5.00955084587368    7.93724339421953    5.83694978794701
H        -5.68738397886828    8.04717159164104    6.67096762095345
C        -3.64319394992139    7.98118977558170    6.04901797202644
H        -3.24951837646444    8.15046969981587    7.04220552465262
C         2.81824276667512   14.01351356305698    0.49374052878195
H         2.99633027352799   14.96775181531583    0.97057674309252
C         3.03616415468004   13.85690932653742   -0.85068915948410
H         3.39626818550332   14.67841632505083   -1.45195966367805

