46
CSD_code = HUKXUI | q = 0 | S = 0 | Stoichiometry = C15H21N3S6Zn | MND = 5
Zn       -0.05578577627430    5.38057784426536   12.10879064008019
S        -2.50169244736729    5.09945323254306   11.64990858363879
S        -0.35044468895481    5.06439510880219    9.64603533863798
C        -4.31825646302957    4.65195399752100    9.32936220309979
H        -4.77222350280746    3.82249732862718    8.77860428180786
H        -4.49231271104013    4.51486157501021   10.39847601924919
S        -4.73487326514493    6.16610482462187    7.06756124042559
C        -4.92425236993191    5.97138270529137    8.86908891485904
H        -4.43562303009724    6.81221167088583    9.36314448528628
H        -5.99291766972491    5.99987710538477    9.06929248776182
C        -2.54313501634757    4.61556082181226    7.67778191895744
H        -1.46762250235607    4.45253086777499    7.58426356845947
H        -3.07827122391122    3.78777951745204    7.20252080813610
C        -2.92919083862051    5.93034201525485    7.01284299954375
H        -2.45282388126865    6.77146851310289    7.51821722145876
H        -2.65221508641515    5.93077757599145    5.96106404254909
N        -2.89292738039139    4.63639939768332    9.08151872924360
C        -2.00011180737852    4.91406463882977   10.03500850292522
C         0.83147199671378    8.21846796814269   11.38725226227373
H         1.53185250654099    7.62196282133982   10.81844845283811
N        -0.05555151264562    7.54344026071661   12.10934258445066
C         0.86879192523396    9.60176744641396   11.35759276016891
H         1.60674431679583   10.10946382392302   10.75706663529911
C        -0.05531382247182   10.30906035096860   12.11066424767828
H        -0.05514709768275   11.38901323991097   12.11127166537720
C        -0.94244891529988    8.21791776879457   12.83211804410525
H        -1.64293021149277    7.62097338678140   13.40032346793582
C        -0.97951045601856    9.60118571102772   12.86311194833995
H        -1.71727999849650   10.10848983243064   13.46422194082386
S         2.39031592511006    5.09775279878024   12.56584515164269
S         0.24091530125266    5.06590216248772   14.57170999183826
C         4.20877946900861    4.64917276182695   14.88428048773072
H         4.66190168498322    3.81993800161655   15.43607879868411
H         4.38101361022106    4.50955133441923   13.81520774949722
S         4.63161676204781    6.16658549770417   17.14224619021724
C         4.81813256808787    5.96831283680038   15.34082721514796
H         4.33024849673191    6.80911278813954   14.84599716810576
H         5.88653243488218    5.99438000222867   15.13883526816316
C         2.43594230868705    4.61931584761644   16.53847360411106
H         1.36022143904454    4.45879434499853   16.63380844687481
H         2.96995071507064    3.79127972566569   17.01456212446960
C         2.82557080661181    5.93455866482185   17.20043257209439
H         2.35020983100195    6.77570726248854   16.69414904768921
H         2.55019275278623    5.93753543479523   18.25263725905974
N         2.78376976275814    4.63686137688704   15.13420378565673
C         1.89018706124251    4.91445780729588   14.18140914361969

