57
CSD_code = HULBIZ | q = 0 | S = 0 | Stoichiometry = C22H26N2O2S4Zn | MND = 4
Zn       -0.74221808423726    0.84172389439951    3.11918028262163
S         1.39648128734510    0.78552371602100    1.70813342765186
S         0.90976030308177   -0.80282461320417    4.13933052996528
O         3.06605309495226   -0.89349784285783    2.61610279599374
N        -1.44079884695027    2.51143353093388    1.96800370141698
C         1.87821288074420   -0.37481820033426    2.82461581164431
C         3.56849200546105   -1.93931392923622    3.46022590299509
H         3.24574017200304   -1.73467341461583    4.48987644089077
C         3.00640571303835   -3.28090730324610    3.00334842743174
H         1.92237087226192   -3.27983521717460    3.08688768463961
H         3.40370058232615   -4.07740270145887    3.62559547891289
H         3.28009182548295   -3.46290239810939    1.96671205243204
C         5.08585697592156   -1.88612789527250    3.35514318732065
H         5.44968754281194   -0.90880838172115    3.66116341784971
H         5.38985325720960   -2.06286790113963    2.32687253265745
H         5.52519904266076   -2.64586435681790    3.99482100736536
C        -2.09573996714506    2.48130912965786    0.83168603494238
H        -2.33384821180938    1.50105645380728    0.44235903283219
C        -2.47366032665215    3.63540197999302    0.14768948409876
H        -3.00907945102583    3.54639054429718   -0.78498724109648
C        -2.16475243281746    4.87657660271656    0.66296590444737
C        -1.45587557422334    4.92077672548405    1.88827546722862
C        -1.10883284195626    3.69645337270468    2.50006470105243
C        -2.56452628157617    6.12587369239411   -0.05128242945900
H        -3.09363666466015    5.88574138719987   -0.96948307563131
H        -1.68617644372033    6.71904434363764   -0.30195164900754
H        -3.21568414255539    6.73304626949777    0.57613417476482
C        -1.08078692217659    6.13516637659826    2.52920396028469
H        -1.34631662541674    7.07150300160307    2.06430889724524
S        -2.88092366194629    0.78399458627392    4.52980858807410
C        -3.36243111489422   -0.37527745388074    3.41221383152049
S        -2.39266019841255   -0.80410094609791    2.09872405610658
O        -4.55037906091075   -0.89412112850313    3.61981699133599
C        -5.05378714852964   -1.93728340347763    2.77300176292556
H        -4.73188542916486   -1.72945210826159    1.74370877806673
C        -4.49212797872068   -3.28075413980176    3.22480221469801
H        -3.40825004114426   -3.28048284989304    3.13947447675785
H        -4.89123027770709   -4.07490776159382    2.60070791716444
H        -4.76432628864077   -3.46574580627517    4.26129408729075
C        -6.57103890770189   -1.88371003030501    2.87966669399630
H        -6.93426674556939   -0.90413144126578    2.58022547655986
H        -6.87436300577338   -2.06677013615831    3.90703176412679
H        -7.01151874996391   -2.63895834927531    2.23548015655323
C        -0.37700808471911    3.69720234448987    3.73579527917317
N        -0.04472486590866    2.51283505230848    4.26912870251933
C         0.61027143433155    2.48412628069712    5.40545836430178
H         0.84870573558722    1.50436830669890    5.79583100281187
C         0.98794678076511    3.63907345385895    6.08816455762122
H         1.52345471331593    3.55122461844104    7.02090260450581
C         0.67876730944891    4.87961380672871    5.57151414934837
C        -0.03020886385468    4.92228597734911    4.34620984850578
C        -0.40559504551686    6.13588548585228    3.70395340022113
H        -0.14024954464193    7.07279283650364    4.16780439047081
C         1.07842087308354    6.12980199258952    6.28427497472320
H         1.60753594283772    5.89082589048482    7.20277405696836
H         0.20004188767955    6.72324000668284    6.53420499908995
H         1.72955759825975    6.73624805014819    5.65613093107416

