57
CSD_code = HULDUP | q = 0 | S = 0 | Stoichiometry = C18H24N10O2S2Zn | MND = 6
Zn       -0.00000828552654    5.07649155791314   -0.00000442834332
S         2.73703123048287    6.09152815388350    2.18022235617660
N        -1.92818175206052    5.88622714610915    0.35484351829886
H        -2.60504767066785    5.42535658492682   -0.25699592769182
H        -2.22381325005484    5.73106597229663    1.31399570251894
O         1.16072590801654    5.07526854407728    4.05488036741089
N         0.31923172493490    4.94936576220505    2.02720204176559
N         0.56494694781053    7.11946843157936    0.03541356592450
H         1.41155238158995    7.22505600924240    0.59872162013880
H         0.77067008989992    7.46194997459442   -0.89830850214984
N        -0.56893324984628    4.40334169585921    2.87629713683065
C        -0.06346005135758    4.48268309935799    4.06836623257409
C        -0.66273270003035    4.02354927692906    5.29664153059380
C         1.36725946785065    5.35590189433923    2.74363213289279
C        -0.54312239692513    7.86836989457087    0.61926127288974
H        -0.47735730720533    8.94399006091862    0.41713829740630
H        -0.52332490029460    7.71806505292457    1.70078438652850
C        -1.85932337486680    7.31565338809395    0.06878906388044
H        -2.70345177750960    7.87143540218437    0.49385723236074
H        -1.86981968421279    7.44691603473636   -1.01532172049144
C        -0.01017129275956    4.18199657675211    6.51992756952974
H         0.95868304129521    4.65365846532293    6.56664982125860
C        -1.91617476692258    3.40722616949263    5.28442216778693
H        -2.44078853904930    3.27288343304623    4.35253320163593
N        -1.82920847153948    3.13374332091139    7.65273194822850
C        -0.64292133759883    3.71794276809404    7.66039250211132
H        -0.17835551566799    3.81774378685592    8.63249507825472
C        -2.44503706067043    2.98514089759811    6.49055664330364
H        -3.41207017993302    2.50171058514115    6.53524672900759
S        -2.73703147239204    4.06146579671624   -2.18026393669072
N         1.92815694487077    4.26673705047851   -0.35485293180386
H         2.60502817604900    4.72760434268871    0.25698303401004
H         2.22378839636746    4.42189244859424   -1.31400602379763
O        -1.16070889553677    5.07774129953963   -4.05489953674277
N        -0.31923378476374    5.20362664242107   -2.02721230179551
N        -0.56498275090639    3.03351981856694   -0.03541950835378
H        -1.41158779984092    2.92793907321769   -0.59872952168070
H        -0.77071027668273    2.69104181781733    0.89830294091047
N         0.56893885676310    5.74965871021870   -2.87629428676060
C         0.06347717001588    5.67032727153519   -4.06836885613381
C         0.66276165855613    6.12947247306603   -5.29663414236660
C        -1.36725459832648    4.79709645520193   -2.74365553380556
C         0.54307968217431    2.28460622543203   -0.61926468335189
H         0.47730425570723    1.20898725717749   -0.41713857814031
H         0.52328320199655    2.43490805794691   -1.70078822739379
C         1.85928560421105    2.83731229056773   -0.06879392193490
H         2.70340877022942    2.28152103432115   -0.49386037902647
H         1.86978028057855    2.70605258806829    1.01531724519118
C         0.01021216364646    5.97103590362721   -6.51992793847767
H        -0.95864139084946    5.49937379102235   -6.56666366139808
C         1.91620342105274    6.74579605329693   -5.28439729064540
H         2.44080834013834    6.88013092342022   -4.35250220076285
N         1.82925978446029    7.01929987467496   -7.65270553860386
C         0.64297285355758    6.43510017906441   -7.66038263501500
H         0.17841633912634    6.33530772149034   -8.63249052349820
C         2.44507718341855    7.16789205834117   -6.49052298347949
H         3.41211065919683    7.65132290153010   -6.53519961908500

