69
CSD_code = HULHED | q = 0 | S = 0 | Stoichiometry = C36H28NO2PPd | MND = 4
Pd        0.93741367147637    3.24173747142862    6.22039518481962
P        -0.84747428626499    4.28025568407994    7.05383068808016
O         2.69279866255138   -3.42939806330220    7.59060021439997
O         0.20100609322501    1.42027337466508    7.01873710222836
N         2.52396961492112    2.27145940736368    5.44176024045567
C        -1.70565921024428    5.23034077125826    5.75760462512344
C        -2.46388974982275    6.37731232158391    5.94791088877052
H        -2.57991225659379    6.79494118899921    6.93723204202145
C        -3.05470489916199    6.99727583532168    4.85932528478420
H        -3.63988168305620    7.89353623575915    5.00549306364845
C        -2.89506414969189    6.47597402422804    3.58638356329403
H        -3.35767810336724    6.96580313260109    2.74238099429017
C        -2.13372834343273    5.33304249336687    3.39139392825185
H        -2.00251153059378    4.93433752493631    2.39642665182962
C        -1.53580336760160    4.71557977857921    4.47282353224872
H        -0.91012540323295    3.82549180431304    4.34302011239961
C        -0.52710834589115    5.38250770996245    8.46557195657564
C         0.80692437365555    5.59861946202606    8.79928445569933
H         1.58095461753629    5.11632950577953    8.19809857277074
C         1.13077083754800    6.39995850565281    9.87910748190153
H         2.16562637983649    6.56866200438043   10.13772105451966
C         0.12358957995059    6.98143812447909   10.63303698242364
H         0.37417794521999    7.60922137865830   11.47537176772361
C        -1.20610357648866    6.74557271692786   10.32055894783410
H        -1.98775543538641    7.18457712941145   10.92341910483163
C        -1.53547666093819    5.94125269108144    9.24427593411677
H        -2.57171338003645    5.72829959105129    9.01899442133082
C        -2.16005321355809    3.22059975868841    7.73231272633093
C        -3.39466066893079    3.04238679354600    7.12124960647792
H        -3.63614865462381    3.58716065961302    6.21868146114377
C        -4.31328099022255    2.16358118147842    7.66997206211146
H        -5.27451720119653    2.02768002450393    7.19556222265255
C        -4.00091602827387    1.45420964487790    8.81711070735427
H        -4.71835963719472    0.76408692037039    9.23658985213763
C        -2.76481130870650    1.62241043342020    9.42305832415792
H        -2.51823457983412    1.06083280040124   10.31258362603198
C        -1.84654953874354    2.50095042729085    8.88315856798646
H        -0.87176327283620    2.63121303741349    9.33630082351322
C         3.31334002467491    3.08191191687846    4.62156978247115
C         2.92867078943742    4.45410672850813    4.61878321331187
C         1.79423339231115    4.84142325666810    5.38366930853871
C         1.45815947624665    6.17631417705414    5.39032965300970
H         0.61016555714402    6.53076766932094    5.96835574462181
C         2.19609677325240    7.12195043158687    4.65809256796395
H         1.89604070601340    8.16034287383943    4.69421285252073
C         3.27256882215868    6.74615258416812    3.90401687965133
H         3.83182072676136    7.47388425715084    3.33305444223375
C         3.66862663918027    5.39414715500189    3.86247843231267
C         4.75619495145519    4.93383015262599    3.09092998325969
H         5.31895060883580    5.64500788562061    2.50336105599147
C         5.08148770957431    3.60490159510741    3.07267329278475
H         5.90345319804553    3.25691585653346    2.46336487332238
C         4.36931223023915    2.66999605908703    3.83354842004662
H         4.65824466969230    1.63143478466456    3.76820906734796
C         2.87069584615041    1.05225003919798    5.74870947309071
H         3.83527987028781    0.69233842527664    5.38265858279248
C         2.15025968516651    0.09732067743407    6.50750724130248
C         2.77226917405717   -1.16521638527344    6.68573708730934
H         3.75419943440759   -1.29782358016880    6.25500504727855
C         2.16367371275860   -2.18235159464990    7.36841990502027
C         3.97829727559222   -3.69707020163701    7.09668596627597
H         4.01548522664867   -3.62132818191274    6.00408197024038
H         4.20343326727169   -4.72078530370938    7.39241783358347
H         4.72579533540471   -3.02346879113020    7.53072571375314
C         0.87523227305412   -1.97311304760862    7.90452775365158
H         0.40882544190862   -2.79089654778372    8.43231026691274
C         0.24921124517125   -0.77453919447015    7.75859227655073
H        -0.73569796916888   -0.60525654862433    8.16927747301113
C         0.85032760592037    0.32453936451930    7.07415506301868

