33
CSD_code = HULSIR | q = 0 | S = 0 | Stoichiometry = C8H18Br2N2PdS2 | MND = 4
Pd        2.79391032205222   -0.00021616271152    0.00017505331737
Br        4.43215735787766   -1.48434460299716    1.04165495766387
N         2.78127050927095    1.28027574955523    1.60547425108109
H         2.11508353805236    2.01315878931548    1.32208229336225
C         2.25198817172807    0.64027944293961    2.81338686816562
H         2.98962581082609   -0.08056238924527    3.18394368341429
H         1.33016170913857    0.10005923594791    2.54300577556693
C         1.94133951283057    1.65899738896272    3.90297068153469
H         1.52615352514106    1.17105124480053    4.78218390551469
H         1.24148840501677    2.41922675464575    3.54871098362536
S         3.46727900180991    2.49140782639089    4.45635634603292
C         3.97538582870106    3.08435610611772    2.80774884217528
H         3.24901989873952    3.82611836302648    2.46800472526277
H         4.94202596884195    3.56467997682273    2.94315218270161
C         4.08025420322162    1.92151478838203    1.82874321042120
H         4.45512315021678    2.29012305232434    0.86044808441744
H         4.78126283095175    1.17507175277676    2.21883765049088
Br        1.15631795986092    1.48440196085781   -1.04171135691018
N         2.80714367020818   -1.28026305767931   -1.60548086869824
H         3.47332871226113   -2.01314782220480   -1.32208926605860
C         3.33642480851057   -0.64026543455097   -2.81339899778056
H         2.59878047023198    0.08057170257455   -3.18395478441093
H         4.25824797367900   -0.10003803364892   -2.54301158368986
C         3.64707573092335   -1.65898685315257   -3.90298122835730
H         4.06226265322292   -1.17104527479264   -4.78219640665538
H         4.34692480503686   -2.41921629508769   -3.54871674702420
S         2.12113545279019   -2.49139797183977   -4.45636449637165
C         1.61303100949537   -3.08434391253562   -2.80775572917822
H         2.33939420257145   -3.82610906033708   -2.46801275950414
H         0.64638894690471   -3.56466503889376   -2.94315624030910
C         1.50816535018098   -1.92150444951568   -1.82874987548181
H         1.13329778891529   -2.29012219243690   -0.86046040758833
H         0.80715072079021   -1.17506558381090   -2.21883874672956

