48
CSD_code = HULXOC | q = 0 | S = 0 | Stoichiometry = C14H25Cl2O5PRu | MND = 9
C        -2.82558240100602    3.16376276068127   18.53096137121374
H        -3.80341298749153    3.38872204850568   18.93162658001431
C        -2.48316139864055    1.81498085432171   18.26954424026030
H        -3.20858906917874    1.04203731813143   18.49896005842700
C        -1.19687903378122    1.46115830788122   17.84119164599825
H        -0.90987323259693    0.42225495198198   17.74343191761055
C        -0.26368058432096    2.48885857965761   17.56058984297728
H         0.74745569759694    2.23281068571062   17.26372558920342
C        -0.61907453033302    3.83356554472632   17.73750997016755
H         0.10044336440131    4.63329911699617   17.60195597386642
C        -1.89994728646824    4.18544726236528   18.27048253743362
C        -3.36051147035710    6.05552156458477   18.64450340138483
H        -3.18698116298491    7.07663446130399   18.98848404175650
H        -3.96921442041290    5.52196788845854   19.38188104612292
C        -4.07585304069628    6.07408384222707   17.29072355405918
H        -4.91851005625533    6.77954609557418   17.35080942030723
H        -3.37341963056862    6.41778513232312   16.52276199322713
C         0.73129591768278    3.70824375529234   14.12483548848907
H         1.74910794715018    3.32410216049301   14.25835038917023
H         0.34143265894173    4.03482718075300   15.09671363378893
C         0.71112122723781    4.86774124645291   13.14283735001252
H         1.03239332729306    4.53048363213173   12.16127142645680
H         1.37615756210761    5.65409575574316   13.48849725441758
H        -0.30017352691291    5.25902305405347   13.07197751032553
C         0.09363729271874   -0.35659077739534   14.03938628733660
H         0.36138693360464    0.18692913519060   13.12944601382718
H        -0.61980117045416   -1.14389094769497   13.78313813070731
C         1.32803831268745   -0.93940220864668   14.70553748983238
H         2.03298773192507   -0.14865000469266   14.95010029712575
H         1.80797222971773   -1.64617805755107   14.03432027878644
H         1.05023230978192   -1.45383956198784   15.62173538018718
C        -2.95250318075197    2.12373010408469   12.42465085476213
H        -2.40517939830761    2.48429806925031   11.54850630296983
H        -3.29769794816168    2.98013378266129   13.01053449088800
C        -4.12887539983007    1.25176919126914   12.02867089419800
H        -3.78346331865803    0.37157764239932   11.49285577626721
H        -4.80397186768677    1.81845939613441   11.39423885917146
H        -4.65696015560424    0.94065868748894   12.92567148338945
O        -2.05753099782473    5.49480375058238   18.55023728648982
O        -4.54606879576142    4.77922554596185   17.00207919113110
H        -4.62815134292177    4.66162347524616   16.04492700975325
O        -0.06990883957242    2.64894965796786   13.61951792459433
O        -0.54569001112058    0.54001881012365   14.95782406271799
O        -2.04606512508255    1.32798229803758   13.20719420467565
P        -1.23244449393802    1.88456579664482   14.43740162996342
Cl       -2.40235405925907    4.64743086495381   14.78563213536804
Cl       -4.10731583639624    1.94970482619706   15.49377422453115
Ru       -2.09631673950544    2.83943732345327   16.29689355463074

