90
CSD_code = HULZET | q = 0 | S = 0 | Stoichiometry = C43H42ClOP2Rh | MND = 4
P         8.10463657353844    1.59007898374575    2.37273038256016
P         8.35917759147916    2.06706938316245    6.89089394773721
Rh        8.27525618861791    1.71459040880616    4.64130622202057
C         9.08801047165993    0.08144146539550    4.71345340158523
O         9.70981807408794   -0.88819463757843    4.77210526934927
C         6.90358203366347    0.34123191258827    1.71663396718091
C         7.13392675730190   -0.97561188381140    2.38614736136917
C         7.81350461856659   -2.00629475291713    1.75079839466937
C         8.03872262651133   -3.20494893767286    2.40556484176034
C         7.58589717664541   -3.38822445510988    3.70096124340128
C         6.90709300566953   -2.36602019439256    4.34219361683066
C         6.69019281420774   -1.16542467258498    3.69095340289689
C         7.61078369031968    3.10807411150266    1.42694468867402
C         7.63010399101872    2.94115194416198   -0.05537649879108
C         8.78323987900624    3.22263268137406   -0.78136743324012
C         8.81384681376844    3.04897171737039   -2.15314831515293
C         7.69005227269866    2.59559955505765   -2.82341848687535
C         6.53167850879528    2.32935365163786   -2.11344271367889
C         6.50218093828452    2.50195427844843   -0.74102764744086
C         9.62538797755806    1.03364178840292    1.48753047109175
C        10.79941739947804    1.96513248571967    1.59800438931543
C        10.91178569461364    2.89163785624804    2.62485793730896
C        12.01081771359591    3.72857097684844    2.70973487579711
C        13.01634344466049    3.65061600261692    1.76216590003805
C        12.91395211734223    2.73303572401995    0.72958155384646
C        11.81430194013155    1.89838478393245    0.64822193788334
C         9.05266550906711    0.72361742402956    7.98077996706823
C         9.54638393849298    1.18122042776811    9.31393144523621
C         8.68928693798612    1.34350600049522   10.39696296793973
C         9.16092212247253    1.80466399199785   11.61323113571168
C        10.50285571896008    2.10444672890749   11.77062382556076
C        11.37186480979943    1.91824728249163   10.70907186890600
C        10.89816768497482    1.45804387495457    9.49449683772916
C         6.70356683891247    2.38920609194083    7.65116048801519
C         5.74911726216487    1.30162128110768    7.26776971154156
C         5.44800639547213    0.25702403861002    8.13283061479599
C         4.57264755131814   -0.74613967427173    7.75386332515497
C         3.97586721283130   -0.71298963591850    6.50608838878310
C         4.26347595611701    0.32728309557837    5.63813261203131
C         5.15366122830314    1.32012715532881    6.00951642400867
C         9.22472106325808    3.59110399833589    7.46915178340386
C        10.71275984009588    3.57815088900215    7.29380407683965
C        11.52209805439679    4.28576666723324    8.17597807743020
C        12.89567452126007    4.29738966752666    8.01594706947330
C        13.48178492141489    3.60177566250657    6.97150417317202
C        12.68467252126857    2.89651186398361    6.08617716865112
C        11.31105149308567    2.88772595788777    6.24915862783868
Cl        7.42669158646899    3.80504245932925    4.58809886095174
H         7.01186236346200    0.27030174581501    0.63088944363415
H         5.90354257384755    0.71579784777553    1.95662018189146
H         8.16461362245113   -1.87215982474677    0.73659675283781
H         8.57172977210656   -3.99826917172098    1.90196673208108
H         7.76450230810042   -4.32435703412254    4.20869769944671
H         6.55086763705431   -2.49529929492044    5.35387063051588
H         6.16074956390176   -0.36624009414078    4.19414841141950
H         8.29634485246698    3.89991229859917    1.74164259287431
H         6.61202706097010    3.37004659376079    1.78911707970557
H         9.66062333925267    3.58561203975669   -0.26528045029458
H         9.71803951228500    3.27175385324367   -2.70069346525687
H         7.71372389557605    2.45948771484678   -3.89442358721850
H         5.64647807423273    1.98844621756871   -2.63054489871527
H         5.58897614063747    2.30745240033009   -0.19638519556210
H         9.88788724152104    0.06108037343517    1.92326050628995
H         9.37954450122373    0.86850329944962    0.43250346540271
H        10.12298214923830    2.96850772676938    3.37222768953709
H        12.07720905230805    4.44251476319577    3.51738690029372
H        13.87426469458394    4.30350885651223    1.82489874935855
H        13.69257697005367    2.66858657571032   -0.01646481409835
H        11.73736227932967    1.18741614354858   -0.16279752208713
H         9.87152139844323    0.26618844433621    7.41942175302800
H         8.25272029659594   -0.01751495346362    8.07331298196459
H         7.64425895968907    1.08822487280222   10.29897526455779
H         8.47794873324926    1.92618626208823   12.44162402219395
H        10.87047675419689    2.46777776296007   12.71872181537589
H        12.42425097551872    2.13110508406429   10.82515704127889
H        11.58572996794855    1.30524306455860    8.67564938621401
H         6.81379226281430    2.47665055667183    8.73448813642094
H         6.36955976197499    3.34692416225695    7.24147713611706
H         5.88777704916849    0.22967051345978    9.12027933616847
H         4.35142935189628   -1.55172793081493    8.43920983267893
H         3.28627017077021   -1.49056070282033    6.21252125753655
H         3.78630044399800    0.36473772367178    4.66889393738934
H         5.37097264768514    2.13507269091820    5.33002795553888
H         8.96635024164294    3.76197234773273    8.52004005117772
H         8.79229702201626    4.40547301998244    6.87332921001429
H        11.07160493927755    4.82554280685457    8.99704982203612
H        13.51173239381358    4.84981679127274    8.71046806505493
H        14.55485196735628    3.60837465849568    6.84928591254186
H        13.13003949804139    2.35070358705531    5.26706433280647
H        10.68785407801531    2.32864078137309    5.55318368740588

