47
CSD_code = HUMBIC | q = 0 | S = 0 | Stoichiometry = C18H27IRu | MND = 10
C         5.54211250405852    5.76948190130410    0.90312109363955
H         6.42855823801679    5.35205925532944    0.42217061414892
C         4.39672055696858    4.97316728999304    0.88495493625467
H         4.48159508004339    4.02126200908644    0.35829580359847
C         2.99433760509605    5.53973384891675    0.85104932144791
H         2.83414338818150    6.02405715225770   -0.11973837512661
H         2.28192175680522    4.71480764349414    0.91335781330926
C         2.73346505351024    6.52787027032777    1.99615423449923
H         1.69192815404533    6.44443599080584    2.31468132184683
H         2.88160292700456    7.55416898661824    1.65310704373539
C         3.64062334509474    6.27153763281733    3.18478609183120
H         3.10336004393730    6.03115753045793    4.10221255112684
C         4.86402547447761    6.93026181183510    3.33720226513984
H         5.19239487229973    7.15657934053709    4.35593109931399
C         5.38913710094366    7.90424685188293    2.30469880851359
H         4.73860497029410    8.78632075870436    2.28481426266704
H         6.37811625259230    8.23987593433742    2.61935976171874
C         5.49350936404054    7.28669898850352    0.89278548872021
H         6.40198791276851    7.65997389728791    0.41776525812002
H         4.64753625361044    7.60243082795209    0.27621368891800
C         5.97955968603338    2.69692310407607    3.28618344335859
C         4.70586035031889    2.58076520156402    2.68106808471561
C         3.75413109789544    3.26796211809600    3.50255855639408
C         4.43878230836226    3.71262480126123    4.68762494792742
C         5.80422091893729    3.37392511320739    4.55586777297213
C         7.20853075968615    1.95368510046286    2.86366970003750
H         7.26942557823432    1.87782082921726    1.77902962023973
H         7.18194259660244    0.94260089651033    3.27655289264915
H         8.11213576703629    2.44379485688804    3.21934811981331
C         4.38990236778651    1.68314411652449    1.52496723884914
H         3.46283896276313    1.96344614233382    1.02924845797130
H         5.19263542128412    1.67754659529068    0.78908199384989
H         4.27542679964190    0.66277633643661    1.89878553735153
C         2.26658967773499    3.13901360218916    3.38600953054074
H         1.75317417950141    4.04759204136723    3.69494567891990
H         1.96598039701298    2.90535292507274    2.36744740610377
H         1.92644294567353    2.32530763461077    4.03108689352995
C         3.80660216072913    4.18381037180018    5.96310414725456
H         4.32083091231590    5.05539358716728    6.36866959459973
H         2.75628135424216    4.42984092667676    5.82475996201656
H         3.87225182544664    3.38672732989776    6.70728450274511
C         6.79027292648741    3.41423633761068    5.67981289704698
H         7.80594276029872    3.24892509701779    5.33158322569352
H         6.76046196965824    4.37076379982964    6.19992539877341
H         6.53760639038752    2.63010399973134    6.39790191422160
I         7.87730816915655    5.57961448690977    3.16324860684694
Ru        5.24598086298599    4.82567472580271    2.88921079215487

