75
CSD_code = HUMBOI | q = 0 | S = 0 | Stoichiometry = C28H43ClO2Ru | MND = 10
Ru        4.58300920576406    0.75427227268059    7.03705755235376
Cl        5.23020944185626    2.90445196769232    6.20490300085177
O         2.22059591194825    3.51565046611692    5.39941530925035
H         3.17390639898878    3.66502477053601    5.49719195641827
O         3.93029135195162    2.27804694754011    3.47151230694294
H         4.52765777378685    2.67821568484506    4.12473488841236
C         2.64083078279648    1.28202466916198    6.23862152782422
C         3.47401513260390    0.61785491478901    5.18748895687719
C         3.34114763947936   -0.63002431560281    5.90288771274077
C         2.53040195512039    0.01880258009445    6.92393078529929
C         3.48977621096117   -2.07020617648189    5.54057766704317
H         3.19276082513200   -2.70271371724954    6.37523820948976
H         4.50956632261519   -2.31878593324276    5.25142878381212
H         2.83819273596908   -2.30004924457241    4.69542772122304
C         1.58801377906790   -0.54504342332349    7.93285350365327
H         1.43169894089689    0.13563072743291    8.76719737531810
H         1.95085570206620   -1.49831419016452    8.31308748890703
H         0.62197166705678   -0.72450454963393    7.45563444337697
C         5.24106600576815   -0.80577269837406    8.49609143695304
C         5.03193287795047    0.39291631000554    9.27483010647722
C         5.92383855263984    1.36808682136150    8.79988542701865
C         6.76325018827527    0.75224352835202    7.76680927178055
C         6.37321198533273   -0.59079935284784    7.62795259390934
C         4.76690937918931   -2.16578741777145    8.91362926474481
H         5.46748799884048   -2.56978193609468    9.64829407935321
H         4.72992160683430   -2.85693960426648    8.07510189527906
H         3.78546510419672   -2.12640129553317    9.37997780416793
C         4.13837771865763    0.51861858262142   10.47022654399508
H         3.72759320674479    1.52302373639213   10.55060178458185
H         4.71170082266947    0.31245105571859   11.37666250912595
H         3.31335315443227   -0.18779837542261   10.42572036059820
C         6.20555844508112    2.70737396024182    9.40750709455492
H         6.33903643951336    3.46620468202281    8.63675293869312
H         7.12629885999920    2.65530378053470    9.99212766472685
H         5.39516117818442    3.01897662647900   10.06258377876437
C         8.00155057970217    1.38734022711798    7.21431275249396
H         8.38690080216258    0.82298325871218    6.36805843414704
H         8.76886157889276    1.41951455595481    7.99067373989876
H         7.80717609662282    2.40900001071997    6.88946523151602
C         7.09999615530035   -1.64411282284124    6.84922822955420
H         7.97197717873513   -1.97867230345526    7.41529021082803
H         7.44633506680471   -1.26024644895918    5.89143387111793
H         6.46690851067088   -2.50854041787145    6.66585198386432
C         1.82264532768779    2.54960846905556    6.33528686976363
C         0.34648588793387    2.22219319887644    6.03301293567424
H         0.27994381501782    1.86303015969367    5.00529940788102
H         0.00589321244488    1.43424241791181    6.70520889085092
C        -0.51677190732809    3.46736844473155    6.20785395217007
H        -1.55766147007474    3.22278308144109    5.98468849967233
H        -0.17851226609395    4.22273100174611    5.49864299114040
C        -0.39389677349166    4.01352374232457    7.62643029677388
H        -1.01071956692591    4.90795166616939    7.73441211860343
H        -0.75555114442844    3.26777252143576    8.34030034861304
C         1.06297418071756    4.34831157553440    7.92870910335730
H         1.16038213039991    4.74375856039036    8.94236780251643
H         1.40763302259716    5.11014387936702    7.22803053987647
C         1.93585825422806    3.10843761056868    7.77327466083815
H         1.62280421962720    2.34252367119787    8.48394861649747
H         2.98286739276687    3.35623694400170    7.96956022124308
C         3.82532553761574    0.90551942759935    3.74534027074890
C         2.69822809087384    0.36207071413394    2.84439599420418
H         2.53138252067032   -0.69284435059838    3.06735766730320
H         1.78894334903177    0.91956833846947    3.07136029893773
C         3.06411839203301    0.53945674935303    1.37448808380874
H         2.25971661515410    0.14546563441509    0.74940435262880
H         3.16774165176352    1.60581194649137    1.17425776696930
C         4.37793073491187   -0.16518623792109    1.05293081158679
H         4.27274119051194   -1.23956349471158    1.22956099038803
H         4.62725676186565   -0.02122427238586   -0.00026312329874
C         5.49384130111928    0.39110743940821    1.93132741524375
H         5.60418077310359    1.45873762210693    1.73631180829615
H         6.44125827895516   -0.10160357629893    1.70096656393676
C         5.15248457896131    0.19100049229511    3.40340973628819
H         5.94165243875348    0.60500149888331    4.03850530464659
H         5.05735219830937   -0.87335278905310    3.61626060493201

