32
CSD_code = HUMCOJ | q = 0 | S = 0 | Stoichiometry = C13H12Cl3N3Zn | MND = 4
Zn        8.14431584578238    4.83018623766216    7.38987451376725
Cl        9.02421400097905    6.37671107538623    8.70785077744435
Cl        5.97465009199640    4.12442373223326    7.50435573630679
Cl        9.04249218454287    4.28877062600384    5.33250151979180
C         5.97475245755811    1.04790810655021    6.82414689256825
H         4.99270872698798    0.87638750836534    7.21096164227367
N         7.02567377838907    1.32863514131635    7.61721353164444
C         6.93425613604868    1.45081294355225    9.04350526051648
H         7.92253706561246    1.39981782135340    9.49325888631745
H         6.29743813427233    0.65999096321034    9.43671477413942
H         6.48574749105376    2.42348382750285    9.26754612433684
C         8.11422104113637    1.55224829532583    6.86545899753904
N         7.76541928189033    1.39755620318556    5.56987286117639
C         8.50555591192084    1.56850696308497    4.43684380256698
H         9.53687583971007    1.84890258950006    4.55660565616352
C         7.90156795120844    1.42816089517365    3.22872896196333
H         8.47949800796244    1.57703701304918    2.33214542735060
C         6.52558733695107    1.11201111029428    3.13328114013388
H         6.07246518462668    1.01897198250534    2.15950189209642
C         5.78396716007468    0.94100124546604    4.26302656422065
H         4.73079964104817    0.71629864171122    4.23798821910138
C         6.41169603709039    1.09814032741692    5.51445278549703
C         9.42772901823922    1.96630343176991    7.35781066539400
N         9.43554857667828    3.01725292229706    8.18458464324595
C        10.59576516768309    3.43743891269062    8.66328848356993
H        10.54264357806944    4.29731790839311    9.31637108441185
C        11.80683342912937    2.84553284728122    8.33237042605459
H        12.72666439825119    3.23563823976723    8.73643670955986
C        11.80357635688704    1.76689428749857    7.46482653959906
H        12.72582667350965    1.28803458708692    7.17204314090305
C        10.59137502513754    1.30726175333735    6.97429596046754
H        10.54519846952371    0.45386186005950    6.31523637987326

