44
CSD_code = HUMFUQ | q = 1 | S = 0 | Stoichiometry = C21H18AgN2O2(1+) | MND = 4
Ag        4.76825155537364    8.52481214695906    2.67661829509509
O         7.08275164085750    9.38602658828722    2.28291090214852
O         6.16631764512174    6.46222276193938    2.78073239780464
N         4.74264942634387   10.67605647365253    1.91987782634928
N         3.47850279697919    6.64648316867369    2.81013600779141
C         3.60271167526187   11.31781459633680    1.77191075621036
C         3.49018298402983   12.56626385269313    1.14899456037779
C         4.62021225458484   13.16166614557279    0.65669597129595
C         5.86272482368606   12.51168587323783    0.79825037032758
C         7.06442918078127   13.07197776175573    0.32097447311812
C         8.24063826561284   12.40020902373732    0.48756489143090
C         8.27664926967029   11.15819748268698    1.13857580278481
C         7.12774874159634   10.57987553999294    1.62525240158160
C         5.87910848289984   11.24939868398831    1.45251817733044
C         8.31000249643198    8.79526281835473    2.68286025115454
C         8.03760181662399    7.67487988672339    3.68186368236686
C         7.55339743225917    6.36456566346767    3.06679292858255
C         5.46448833552762    5.31021305349122    2.58148163417598
C         6.03557483354065    4.07821680803795    2.36547620851463
C         5.24111339760194    2.93550096939108    2.19013799891022
C         3.87920173618934    3.01363344834690    2.23463512087527
C         3.25346750277304    4.25856219026110    2.44625401908908
C         1.85233583951371    4.39799760496904    2.50821533050240
C         1.30916596417824    5.63528506696126    2.72730099706122
C         2.16623964619384    6.73297091497518    2.86860433107682
C         4.04276924113364    5.42925631361488    2.61222693796633
H         2.71960282491273   10.83264855044453    2.16753142270226
H         2.52319077068791   13.03475553226228    1.06436802134193
H         4.58063116385792   14.12100728321504    0.16290836934308
H         7.03378197024090   14.03047142941746   -0.17238511936609
H         9.16511713856532   12.81804297089974    0.12142886669073
H         9.23082032232122   10.66792312935979    1.24033524987479
H         8.93355020332145    9.55696388926437    3.16749170120911
H         8.83956728639585    8.40410164630777    1.80449966191172
H         8.96313260878199    7.47369254266167    4.22122774167100
H         7.28783772795145    8.02076035644162    4.40033733103285
H         8.11030324955805    6.14237569773258    2.14737918509644
H         7.71440176979358    5.55379909284192    3.78793343413324
H         7.10630831646387    3.96498589209531    2.31835164535084
H         5.72868155871959    1.98826929855697    2.02204365176902
H         3.26548304764469    2.13560865788584    2.11021252740407
H         1.22968651900742    3.52458362280965    2.38491101811610
H         0.24286661573439    5.78013578388913    2.78873679174857
H         1.75389992127414    7.71873978582218    3.04232622604946

