69
CSD_code = HUMGIF | q = 0 | S = 0 | Stoichiometry = C27H38MoO3 | MND = 9
Mo        2.40630884724258    7.76592880974240    3.39435723850138
O         4.02023288453705    7.22915285597857    5.96440618619990
O         2.90512066866878   10.79068743056185    3.09373484493113
O         5.39089632944433    8.25504672597155    2.78126673372325
C         1.64886607620005    7.04807228833744    1.34819368869980
C         2.20473732230649    5.91609225442200    2.02532637981384
C         1.40487622840402    5.66464411886629    3.16988446129236
H         1.48342007339150    4.78866806859111    3.80011590829113
C         0.36379551962085    6.61900709711078    3.22564393408900
C         0.53390277023607    7.48774087833975    2.10995601785317
H        -0.20122279677413    8.21621106140442    1.78566704758682
C         1.31296456272925    8.88168725743762    5.07163615305116
H         1.87792979683574    9.62670160780731    5.62922243535085
H         0.94146961241114    8.16263603039126    5.79866271695817
H         0.45688089087290    9.39263390054068    4.63250006425865
C         3.41006679528957    7.44241576118867    5.01578632299888
C         2.71361492354200    9.66471484707449    3.20705057372642
C         4.27778430293929    8.04141379533671    2.98634156325540
C         1.98617706391628    7.51807859261037   -0.04118178407152
H         2.91557220483253    7.03564828731983   -0.36762822816033
C         0.86791402714192    7.09781667611911   -1.00866440178949
H         0.72303304520418    6.01592990498673   -0.95446198314184
H        -0.06801788833831    7.57323440240989   -0.70615057039026
C         1.20698051860217    7.51063845568588   -2.43700356659995
H         2.11619720750452    6.99645474094952   -2.75769504165095
H         0.39957415199739    7.21111214958739   -3.10856644248288
C         1.42202092166471    9.01863639187898   -2.51826796999475
H         1.68516297701596    9.30271627229016   -3.53901094942369
H         0.49329223679539    9.53150899092826   -2.25743687082464
C         2.52616430833210    9.44979902237383   -1.55764944337974
H         2.65788332074611   10.53242827086929   -1.60255171132495
H         3.46911383062832    8.98682890071325   -1.85821294526110
C         2.19261589694444    9.03353073310427   -0.12767537020349
H         3.00714474039100    9.32966736955523    0.54057138364682
H         1.28464075646985    9.54857190303388    0.19515260660897
C         3.26701335262343    4.98803896676533    1.50117319614552
H         3.86481596235522    5.51376440756543    0.74594952159258
C         4.22495631785532    4.49884355538886    2.59197185347862
H         3.66825829424655    3.95387619889815    3.35749711307875
H         4.70789661381136    5.35662396491537    3.07070256118742
C         5.28202684153080    3.57440955786243    1.99481603051085
H         5.87526399526414    4.12714586524651    1.26269382899840
H         5.95784150881202    3.23271308565709    2.78098842453327
C         4.62390176880780    2.37643121044631    1.31644257010089
H         5.38713490594694    1.73193561281410    0.87611674766071
H         4.08168166672682    1.79055347719861    2.06244894178956
C         3.65268638011994    2.84351300457651    0.23671819689845
H         3.16350024264835    1.98249023819847   -0.22368019695501
H         4.20592306985614    3.37033570397886   -0.54444866766251
C         2.60132801310036    3.77699909356041    0.82798392402428
H         1.92291557312739    4.12043230256220    0.04336039441786
H         2.00694666186422    3.23734970496308    1.56938762205446
C        -0.88668703810262    6.54093583840086    4.06201838249689
H        -1.19544434114214    7.55271720443119    4.35435650266257
C        -2.01532526193859    5.93396280981046    3.21046730124752
H        -2.14821459313013    6.51886701503222    2.29748659963766
H        -1.73436110703563    4.91922948448630    2.91669054367843
C        -3.32097469482450    5.90126718738296    3.99923948243368
H        -4.10837599667570    5.45419037060104    3.38876267538335
H        -3.62364745070103    6.92381059923122    4.23779941124198
C        -3.15337834363959    5.11009844738081    5.29289293530445
H        -4.08465384205546    5.12800025210107    5.86236453416407
H        -2.92857737998158    4.06805400232121    5.05304729836220
C        -2.01804375209731    5.69109375078030    6.13067491687644
H        -1.88745566404462    5.10113252355032    7.04013507265081
H        -2.26893732972079    6.71195276679616    6.42844690006405
C        -0.72011979340547    5.69850073872319    5.32874429531648
H         0.09723037378268    6.08876007896490    5.94062475820251
H        -0.47323908192026    4.67061512599011    5.05260734641855

