101
CSD_code = HUMKEG | q = 0 | S = 0 | Stoichiometry = C36H48N6NiO6P2S2 | MND = 6
Ni        8.26198724453487    6.81623767773222    8.66984542228624
P         6.38848873650676    9.30373338267242    7.99976032572487
S         9.62926473656398    8.11261484934958   10.27777380122990
O         5.12865729894788    8.33242691936104    8.01501452989274
O         6.08953275179568   10.69089076913686    8.42018188387382
N         7.58454238931756    8.54141033166180    8.85742665193314
O         6.79737356291597    9.18756473776659    6.45752723077185
C         8.37589101319804    9.12570593558412    9.75443417594830
N         8.17137848697889   10.38966894381273   10.15878676446071
H         7.37050633366913   10.82613386855303    9.69877928178959
C         8.82743813844687   11.22082200939885   11.06313186344641
C         8.34039731193246   12.52704354420656   11.15532107817515
H         7.50200233975885   12.81978260599321   10.53870708122476
C         9.90287711374588   10.84197710793053   11.86139015261578
H        10.28789438185132    9.83844293707699   11.81029260299029
C         3.10311021024542    9.45724645123264    8.67042235654450
H         3.54261823941295   10.41361854306118    8.40142507326214
H         2.39578253537651    9.60420736403685    9.48216545962643
H         2.58184967956843    9.05285016240633    7.80606034060629
C        10.47274969840787   11.75967147276882   12.72610921240331
H        11.30567277221154   11.45275574747457   13.34118493200612
C         7.15799191129167   10.38978481606284    5.77683895702234
H         6.48235326254856   11.18588032628604    6.11247065731147
C         9.99007307005255   13.05345209406386   12.81260832742261
H        10.44217258166870   13.76101100408155   13.49122893476864
C         3.65994754035283    7.13232145340334    9.48509198460469
H         3.18264040555742    6.67294608932060    8.62334391631588
H         2.92992474297071    7.24174645076793   10.28231993006240
H         4.46619863730654    6.49368025580158    9.83513905557447
C         8.91724427125422   13.43287114622558   12.02153263787805
H         8.52781777315020   14.43867313695328   12.08066195599600
C         8.58962389457763   10.78580035834641    6.11470213250133
H         8.68556941586804   10.92175502472776    7.18976752125708
H         8.84485203298145   11.71768699113224    5.61654650842883
H         9.28128247322205   10.00861695546743    5.79866728675625
C         4.20469935678504    8.49969110104210    9.10340147960392
H         4.74225001364289    8.92986179129501    9.95799025740631
C         6.97511571891640   10.14200360187931    4.28641454024159
H         7.69271172798555    9.39949806299817    3.94676047880174
H         7.13039104786487   11.06652404797448    3.73724283284482
H         5.97085277320036    9.77533259745185    4.09286636700058
N         9.45964125540574    7.40421720090659    6.88438436903432
C        11.52909042013826    7.96626147992793    5.85279326252475
H        12.53310777950255    8.34565062552220    5.95823267802819
C        10.69830360885692    7.86044222513437    6.95797879279438
H        11.03731943629121    8.16555885307322    7.93911615265800
C         8.96208126420320    7.04591410688570    5.69731147988305
C         9.73421566129720    7.11126706672903    4.53892286100448
H         9.33751605699909    6.79094009680398    3.58854341303606
C        11.03748707544033    7.56821051251983    4.62138230359421
H        11.65581061559111    7.61613709474200    3.73637860921374
P        10.13554322422066    4.32880295959367    7.99983365646213
S         6.89470121933993    5.51983316666195   10.27780879826386
O        11.39533903823511    5.30015449587684    8.01511318974405
O        10.43453811404978    2.94165581102313    8.42025994875984
N         8.93944256889927    5.09108172461553    8.85747300067487
O         9.72668617975641    4.44496297370965    6.45759187471493
C         8.14810015999068    4.50677001222286    9.75447625299346
N         8.35264753094394    3.24281453284396   10.15883633558994
H         9.15353933932955    2.80637342412664    9.69884113066385
C         7.69658240861323    2.41163398401508   11.06315224659843
C         8.18364345121720    1.10541917248888   11.15533025574234
H         9.02205921594678    0.81270518791582   10.53873258431375
C         6.62111536230327    2.79044522223569   11.86138878941631
H         6.23608259741565    3.79397386860371   11.81029973939758
C        13.42095095801883    4.17540535338340    8.67042538007381
H        12.98148285674715    3.21902174629350    8.40140311700583
H        14.12830654350792    4.02844900650571    9.48214388121018
H        13.94217041347197    4.57985925194426    7.80606487003042
C         6.05123108596921    1.87272301937057   12.72607048924737
H         5.21829025036375    2.17961492643204   13.34113418252375
C         9.36611243013007    3.24273446814955    5.77689576560099
H        10.04175218307686    2.44665187964428    6.11255430044907
C         6.53392613504959    0.57894843794182   12.81255666279434
H         6.08182356449179   -0.12862986685121   13.49115512198115
C        12.86402735923681    6.50027101978733    9.48520325461244
H        13.34136442416205    6.95967175879653    8.62348495235168
H        13.59401488645474    6.39085384097998   10.28246412032263
H        12.05774404867782    7.13888819568596    9.83522103920841
C         7.60678619504907    0.19956441188090   12.02150661168306
H         7.99623015873034   -0.80623124201651   12.08062942981826
C         7.93447551728842    2.84669566079201    6.11471092367765
H         7.83850010666736    2.71072148498398    7.18977105092619
H         7.67926891756427    1.91481614185617    5.61653077723543
H         7.24281941908901    3.62387883438123    5.79867155320350
C        12.31932831076239    5.13289135891187    9.10347224661788
H        11.78181576581996    4.70266340462302    9.95805638071861
C         9.54903898030719    3.49051122293434    4.28647659021845
H         8.83143836508895    4.23299764717035    3.94679174828413
H         9.39380782276466    2.56598404940239    3.73730329006806
H        10.55330028700574    3.85720643532748    4.09296450282399
N         7.06426245919193    6.22823004055212    6.88444687298084
C         4.99475832058735    5.66617212807479    5.85297013002006
H         3.99077209593704    5.28671130148198    5.95845416145901
C         5.82560571904603    5.77199728780682    6.95810769762863
H         5.48669275014475    5.46674963449042    7.93924029150421
C         7.56174417298319    6.58655793434970    5.69734912420274
C         6.78953234460907    6.52123842307265    4.53900950522908
H         7.18614447520225    6.84165505396843    3.58862419215590
C         5.48627540033628    6.06426575802467    4.62153862726840
H         4.86788406481425    6.01639152526644    3.73657944731813

