47
CSD_code = HUMPUC | q = 0 | S = 0 | Stoichiometry = C14H22N4NiO5S | MND = 6
Ni        6.54998830554707    1.69592234647942    3.55031510565420
S         5.04814700367129    1.40380015637241    1.22578180559634
O         7.76535473269185   -1.47562687556424    1.38856244792759
O         7.58543170981809    0.60846679272282    5.51393381916621
H         8.27459146552677    0.22293855127940    4.95800118052582
H         6.86790461555221   -0.04137317836729    5.49280471164221
O         7.42693018704169    0.25393878321146    2.69986815434474
O         5.15095736038664    0.54715633843395    4.16887267510299
O         3.24156312438515   -0.54353353106003    4.08146181463230
N         8.08768037695869    2.93955465603439    1.56779883901074
H         7.47355213930829    2.43586673712960    0.93965423598223
N         7.93291593269186    2.83241306900653    2.89408234817077
N         5.75568369635241    3.08048372334596    4.54708584701532
N         5.57417538804824    2.86119419062937    5.85470708559961
H         5.89203762405570    1.99225549845946    6.26482485685307
C         9.52152849329099    3.99847657964934   -0.15211686563710
H         9.86605005443538    3.08222066580626   -0.63028224510089
H        10.32363024348443    4.72969333543891   -0.18221138941898
H         8.67355906088419    4.37761063988693   -0.72051772171391
C         9.12961936495846    3.72845912242672    1.25211183596262
C         9.66478592813879    4.15517017848734    2.45075503064467
H        10.50879291136213    4.79827744930470    2.59008231548486
C         8.88588998859879    3.56478423478843    3.45615682933012
C         9.02690049979278    3.69041874545096    4.92940880326658
H         8.58398795258515    2.82177126193066    5.41182170016325
H         8.51827832329475    4.58708305581840    5.28359763965671
H        10.07634232864414    3.76290682473893    5.20227194854907
C         5.24380158744062    4.84810336659159    2.90512341833338
H         6.13001339927663    5.46875699918350    2.77193745821444
H         4.36506197187765    5.46724742102066    2.74489985179405
H         5.26471021548636    4.04927331210374    2.16419708623718
C         5.22273802524532    4.26511824783373    4.27193280603712
C         4.68704996465378    4.80933321648252    5.44732129526938
H         4.18770876972890    5.75072798806706    5.54635964532551
C         4.92495541586902    3.88052073041515    6.44166510192880
C         4.58341616169305    3.87902266932783    7.88470319289348
H         3.87777230996698    3.07870836310225    8.10441229187046
H         4.13292743940027    4.82692818078971    8.16301865533645
H         5.47490196046139    3.71885764040545    8.48908924030407
C         7.10591858994435   -0.51708374162024    1.74297748519556
C         5.80867495843838   -0.22561452808675    0.94017831182075
H         5.06688199853708   -0.98130556009100    1.19833277615080
H         6.03422390320916   -0.30581536314316   -0.12378086053604
C         3.65992981957652    0.95550588503803    2.29816133640511
H         3.16267544773653    1.89499325657821    2.54924789389957
H         2.97038625091189    0.32579678159535    1.73455733833345
C         4.04767299904573    0.24189578256396    3.62113286677393

