126
CSD_code = HUMWAN | q = 0 | S = 0 | Stoichiometry = C62H60OP2Ru | MND = 8
Ru       12.95882123269590    4.36914229791118    1.80203923359837
C        10.09926388405469    6.25024080963447    0.90752503352298
C         9.26503514978544    5.68418098639940   -0.02893249899543
C         9.76790359403191    4.87587672782980   -1.05795494114124
C        11.11404481445402    4.62538325025572   -1.17877657585181
C        11.99360426599771    5.19432938913447   -0.24516825305566
C        13.43056320324244    5.24650585075614   -0.18259204432563
C        13.77627101696695    6.18238138370012    0.82932894488050
C        12.60731115305295    6.55230399869100    1.53270701848867
C        11.47660138427754    6.00615430962249    0.82130584387725
P        12.26739852078574    4.44533971039141    3.97792445034287
C        13.00964505472343    5.80663126374918    4.95793417242415
C        14.18258443300792    6.39199364679286    4.50098319671541
C        14.79667657609511    7.39212028676104    5.23410608517874
C        14.24320007006605    7.81094190561361    6.43164536935007
C        13.08188997493366    7.21713211611998    6.90170860118812
C        12.46977647385780    6.21392039206987    6.17479702483684
C        10.48465781258190    4.78790746032266    4.17860371132254
C         9.99393404768613    6.08827318152219    4.24151325084232
C         8.63112799683077    6.31812385068206    4.30225566636248
C         7.74356585587467    5.25487480914273    4.28667955767267
C         8.22321593147823    3.95730549697370    4.20584465297757
C         9.58398390262062    3.72572182326481    4.14506268077064
C        12.55096578096196    3.15918778324128    5.24879598792422
C        13.76852328705794    2.49471186058529    5.15532152815822
C        14.13606801162812    1.56600760724170    6.11019280048662
C        13.28661611767271    1.29785940681770    7.17103852536661
C        12.07496880578913    1.96122171816194    7.27244136474903
C        11.70533616610242    2.89469570985055    6.32019585552842
P        12.52238431482427    2.20434287328404    1.24674943329410
C        13.11586810356869    1.85749916686427   -0.44884721094637
C        12.30967173580441    1.42109813228791   -1.49275349093878
C        12.85169886892038    1.23341335710262   -2.75404790630965
C        14.19448489272359    1.47626518400077   -2.98489419786662
C        15.00115573445717    1.92415934743909   -1.94986201413092
C        14.46296920334410    2.12263250015213   -0.69295899959429
C        13.13619238340959    0.73968443712651    2.15666623312439
C        14.17607141940388   -0.07348414861783    1.72719515260128
C        14.56563238316546   -1.16182784993163    2.48876443248733
C        13.91889880549874   -1.45120276099485    3.67760785008659
C        12.87107194990885   -0.65152049683316    4.10547187413635
C        12.48615812944177    0.43845445832818    3.35089705711880
C        10.76879831703365    1.70080396432044    1.12646619744019
C         9.78222363881469    2.66442423121962    1.26722891456609
C         8.44584440336279    2.32796671599841    1.14287942471417
C         8.08829624395311    1.01704996329388    0.88287019783902
C         9.06891599013179    0.04408469055372    0.75252129782890
C        10.40370018286794    0.37995109167800    0.87187075519604
C        14.86155792346784    3.75114189607755    2.18867415420419
C        16.05261765085177    3.53607475550936    2.20274119068411
C        17.50778743469660    3.29933194353946    2.17424307970457
C        17.83713024050692    1.78373465186655    2.42909997642448
C        16.95485303036504    1.30518877979938    3.59627766069455
C        17.56160528850944    2.02023455327447    4.81729428701014
C        18.73324029707369    2.80353319717504    4.21334590099748
C        18.23689362908722    4.00973847208942    3.38343040596301
C        19.19738036518447    1.83787169674763    3.13008074961614
C        17.77087212484924    0.86428148024525    1.22325486479038
C        19.46165832574028    4.85425124908043    3.00867278759382
C        17.31739495908116    4.93567506205120    4.18352475920238
C        17.91317637742255    3.77249109049067    0.74557383147028
C        19.35454146888877    3.76314630652885    0.27819415743695
C        19.62206946583304    5.03998273198892   -0.49587559026416
C        18.24186156335259    5.59735472333090   -0.82066455585654
C        17.38377282154803    5.16316716938778    0.36650023229890
O        20.14896195378390    2.86146036984422    0.38125624454854
H         9.70597333625150    6.89460151685726    1.68172629891678
H         8.20305052072424    5.87738369902523    0.01692042655618
H         9.08028513981412    4.46122149046100   -1.78092847723105
H        11.50152260271035    4.03332183429906   -1.99694859563657
H        14.08099989996510    4.92219461698700   -0.98590224108132
H        14.76010466691804    6.60831089594887    0.98625952574152
H        12.54285741174720    7.35884959445489    2.25535986903237
H        14.60751387256780    6.04259085519987    3.56744396985410
H        15.70832287461996    7.84517586455991    4.87281103629832
H        14.71712415491556    8.59526581149528    7.00357793403773
H        12.65409106339056    7.53680596728487    7.84109029456457
H        11.56775432049397    5.75011232625618    6.54853423043368
H        10.68436687554109    6.92158559053586    4.25207912659883
H         8.25904739406353    7.33151564795056    4.35968625685056
H         6.68004403149200    5.43784237737298    4.33459451163427
H         7.53560967324447    3.12396876327229    4.18770100871787
H         9.96107372030516    2.71370258092230    4.07224969287421
H        14.40116588467492    2.72014048774193    4.30476082309468
H        15.07791246128562    1.04644318591919    6.02310230192615
H        13.56700493634130    0.57135557303354    7.91981631315680
H        11.41252553124868    1.75314871771328    8.10078121133086
H        10.75561930090423    3.40254894472538    6.41257136891400
H        11.25736094415530    1.23642192658481   -1.33150966833497
H        12.21726102720437    0.89829889583808   -3.56229979751472
H        14.61019407289746    1.32628265491460   -3.97056342491493
H        16.04847629125242    2.12335202391864   -2.12988125641919
H        15.06410036476836    2.50674210682257    0.12362336299779
H        14.67224381485307    0.13176963353687    0.79111483316102
H        15.37507073922527   -1.78967247855663    2.14600816376691
H        14.22467219067992   -2.30281152526850    4.26737285593089
H        12.35624512658149   -0.87697873795906    5.02786796964347
H        11.66765571958336    1.06768994223552    3.67596100792123
H        10.06880882210377    3.68351445236369    1.48869992661770
H         7.68880986444831    3.09072691273300    1.25197858914483
H         7.04665196594394    0.74793132483405    0.78427118226328
H         8.78878050066962   -0.98060536341997    0.55459197256863
H        11.16899442466823   -0.37766131601665    0.77008961266593
H        15.90663701233424    1.54297723810240    3.43378103553942
H        17.03540692776186    0.22145771961103    3.69695702107475
H        17.94179438901936    1.29967928109991    5.54416169517979
H        16.84767865080245    2.66041205559278    5.32907428854142
H        19.47975287165001    3.09215401117353    4.95407625616601
H        19.99880761157771    2.20364907558439    2.49832908293971
H        19.48431380876727    0.86545137511584    3.52956804099182
H        18.56282559844587    1.09759231818317    0.51620663376893
H        16.80467397903995    0.93395663721507    0.72917143833372
H        17.90978562025068   -0.16566691898613    1.54773880211478
H        19.93016150978713    5.21013667376634    3.92611002118714
H        19.18470456356677    5.72854572703750    2.42678865667440
H        20.20759411906009    4.29052077438378    2.46054608640080
H        16.36431802917587    4.47362572700871    4.41606470651363
H        17.11362880266935    5.84054974677458    3.61532806841002
H        17.80447371028870    5.22058830005372    5.11483745121575
H        17.43524682757067    3.05554481046347    0.06404086232918
H        20.24106614403594    4.84122012684653   -1.37054731804078
H        20.17719994296018    5.71890020991605    0.15484521874903
H        17.86523879964405    5.14165135750547   -1.73895515512821
H        18.24703163563023    6.67842430577771   -0.95720749393018
H        17.50076753906707    5.85797367165202    1.19705814587755
H        16.32763022543795    5.12194496209289    0.11283885867063

