161
CSD_code = HUNFAY | q = 0 | S = 0 | Stoichiometry = C62H92N2O4Zr | MND = 6
Zr        2.32290047359877    6.46456738625548   15.25273969509390
N         3.66616936112524    7.55309489487110   16.78968998250145
N         0.96221838860704    8.19453719132534   15.96713197462732
O         3.51711927250453    7.45983312590388   14.01061068996520
O         3.46286497352230    4.92632741153083   15.31261688372872
O         1.18791333268446    6.17614297919387   13.73742834424879
O         1.13264863663391    5.46519165824589   16.49518601361335
C         3.86799434899033    8.72857098958991   13.98722440842340
C         3.74814449038978    9.57702490769258   12.85518287492529
C         3.42315687951522    8.99204448368246   11.48368464467019
C         4.49343490586244    7.93485831035747   11.17635957302910
H         5.48223380841925    8.39027282175941   11.16168257613464
H         4.30569127816732    7.47603238374238   10.20788900450532
H         4.47274110019055    7.16185406142503   11.93873990747377
C         2.04515445506213    8.32096538553227   11.47661648981969
H         2.01068212077530    7.52710253712832   12.22052436274630
H         1.85401580099031    7.88118541224002   10.49950112191207
H         1.25810324249577    9.04704693151564   11.67813880088268
C         3.44748119432219   10.03649364645395   10.36242979059086
H         2.68075145997488   10.79466228330480   10.50805611929377
H         3.24889978343993    9.54108008954223    9.41406675609089
H         4.42004779365661   10.51803635025996   10.29047763698474
C         4.02892327969973   10.92665210871819   13.01374251383098
H         3.89634200159057   11.57107612802460   12.16464877885905
C         4.48835318229326   11.49122582013869   14.19856182967603
C         4.77011133964093   12.97785387195299   14.35832028529450
C         4.39660049652035   13.79020772227998   13.11564962094524
H         4.58397148076290   14.84597638513327   13.30236414994145
H         3.34294097593007   13.67230225020629   12.87351953609118
H         4.99496169594877   13.49144582188336   12.25854799275382
C         3.95284020031198   13.51935066675311   15.54074184971659
H         4.13620497780749   14.58417195940788   15.66894123935215
H         4.21601692937130   13.01627096369775   16.46716297166312
H         2.88965784465387   13.37204408781392   15.36096654195956
C         6.26739517759062   13.18084696652218   14.62925977150283
H         6.85394414381826   12.77613717798427   13.80744350586592
H         6.57447992903971   12.68031402467891   15.54337088878412
H         6.49326825097501   14.24076605716717   14.72742234120346
C         4.73840222204711   10.62643981881102   15.25576645175269
H         5.17990444279123   10.99055835757028   16.17329628256469
C         4.43982103855900    9.28074294542911   15.15753056604209
C         4.81023133053411    8.30845599093788   16.24073365240917
H         5.33490745792352    8.83196053710933   17.05811912494832
H         5.50145529296598    7.57491662741142   15.80384465414018
C         4.72265898755530    4.87142529327414   15.69131667899262
C         5.65967200723450    4.07567043424283   14.98491534819561
C         5.19866360100733    3.34632690446303   13.72735591993509
C         4.66670055353094    4.37434669308066   12.71538547067073
H         5.46563821410534    5.05800908029760   12.43200946846261
H         3.83786164006193    4.95164291966175   13.13796694105624
H         4.31536097992431    3.86500062906434   11.81962375506930
C         4.08258677061160    2.35657629688978   14.09297626900114
H         3.77370858513603    1.80212921451606   13.20893218660355
H         3.22080201210253    2.88818003928104   14.49020463338947
H         4.43666706688847    1.64965013545737   14.84110563396015
C         6.32906000253528    2.56178262018126   13.05224048972494
H         7.14498949913923    3.21895376679224   12.75975761501326
H         5.94591766769562    2.08420498514734   12.15263613976672
H         6.71329652795891    1.78231956231502   13.70646114089261
C         6.95214284156325    3.99363173688734   15.46482982099793
H         7.66349964714207    3.38623138053969   14.93206086670214
C         7.38791734776742    4.65606914276366   16.61261237267401
C         8.82952811734254    4.48690584898782   17.06899985646152
C         9.77408809872075    4.96660688852487   15.95798787238736
H         9.57888017315602    6.01092302213329   15.72363057335795
H         9.64383782420844    4.38501856215750   15.05001478149436
H        10.80990639739903    4.87117768889236   16.27744148730920
C         9.09052943719772    3.00365903241843   17.36641634271387
H        10.11222784726765    2.86271040060461   17.71343214105194
H         8.94399165609499    2.39215421178270   16.48085915120456
H         8.41030049077392    2.65158188389092   18.13892625350553
C         9.14372077477760    5.28717869431792   18.33636729771198
H        10.18272332590349    5.12770950238973   18.61800267523935
H         8.51810946391433    4.96583306449372   19.16570261434880
H         9.00051980064327    6.35255178179728   18.17143529614007
C         6.46826934895162    5.44389719362819   17.28201356950155
H         6.75299144703822    5.98528524532797   18.17125938214235
C         5.15441793302853    5.56150461520854   16.84423226280845
C         4.18780367362296    6.43755641530778   17.61298989587832
H         3.33131402965637    5.84507881619421   17.96233127740351
H         4.71111119630341    6.84476946929202   18.49600253422346
C        -0.06982971601733    6.53437991594536   13.58483569904572
C        -1.00014180577387    5.66937687407436   12.95499696676448
C        -0.53581911542171    4.27988770427458   12.53099186167639
C        -0.01713117125147    3.52374382998110   13.76513435259716
H         0.81070821077154    4.06175772291272   14.23845650529234
H         0.33184389333828    2.53442247329319   13.47399438842911
H        -0.82223739743549    3.40591020437122   14.48902785206431
C         0.59112795744909    4.41346627924887   11.49617295858918
H         0.24596115145476    4.98310571844523   10.63525885717759
H         0.90370378311976    3.42727975125524   11.15830348870458
H         1.44827573320481    4.92024317449089   11.93375853744402
C        -1.66056277709542    3.44697072014896   11.90627317810133
H        -2.48408087194085    3.31061482292192   12.60368351843952
H        -1.27570771602991    2.46264806886513   11.64706973276483
H        -2.03462907463930    3.90964125566353   10.99561773309417
C        -2.28949195257002    6.12056451185731   12.75126995432353
H        -2.99532637619798    5.46683075568967   12.26832752432848
C        -2.72883689403296    7.38743605680081   13.13610742995199
C        -4.16592144601939    7.79732617012839   12.84976062820921
C        -4.40464151947198    7.76036790988666   11.33372388580918
H        -5.42306290769475    8.06767387493454   11.10442097080788
H        -4.25204466228082    6.76164051490323   10.93513294662529
H        -3.71680244570974    8.43606606811633   10.83000907820923
C        -5.12236456171168    6.82106351975325   13.54895817179780
H        -4.94196260693915    6.82223225307324   14.62188199336482
H        -4.98933882044533    5.80702669012603   13.18348806575829
H        -6.15518553908579    7.11404681307812   13.37124337305516
C        -4.48536666675015    9.21025835434129   13.34617972022118
H        -5.52079110603840    9.45144578035890   13.11366940653867
H        -3.85162834750213    9.94791224396028   12.85962904144629
H        -4.35778796040834    9.28359344966023   14.42379755302860
C        -1.81662327165371    8.21367903515250   13.76821619858555
H        -2.10464344938075    9.20096802914889   14.09561192599254
C        -0.50601217653381    7.81174736886154   13.99687176690036
C         0.45154399825707    8.75475838990424   14.69439704445014
H         1.31350030936595    8.97008253211866   14.04827796355164
H        -0.07650339374651    9.70349000108884   14.89528649425365
C         0.76147066407157    5.71986214164909   17.73221708136201
C         0.87561052171734    4.80512333352861   18.81195368110251
C         1.21947670741231    3.34157164029441   18.54971470792688
C         0.16844734138729    2.79670264740774   17.57208832335067
H        -0.82759764186444    2.87415723784899   18.00480112028738
H         0.36946018754968    1.75227862343638   17.34288328056271
H         0.19714236365984    3.36816286631905   16.64911384404247
C         2.60791606531517    3.19972220941466   17.91600064180391
H         2.81296816547634    2.15122432409079   17.70785510298703
H         3.38185248918911    3.56611829526768   18.58982847650106
H         2.64952684292705    3.74805854346151   16.97661335220004
C         1.18647010796920    2.47935721310011   19.81628709393599
H         0.20714683616277    2.50638116222304   20.28862794143877
H         1.94040411818041    2.79712086593186   20.53362113738048
H         1.39889893961763    1.44677938842695   19.54640888980617
C         0.57108624513604    5.25553386437072   20.08857485085681
H         0.69887555070969    4.57177064073739   20.90710002134767
C         0.09337725119674    6.53084771705734   20.36969717213915
C        -0.21839270004135    7.01169124953439   21.77934010540663
C        -1.72139798074464    7.30187885450652   21.89043779579521
H        -2.29281706167277    6.40355688695996   21.66731204819811
H        -2.02616002689362    8.07843651091218   21.19423677344229
H        -1.97016111075706    7.62951363475247   22.89785885697449
C         0.14925157136569    5.98362378342167   22.85229362864935
H        -0.06111217185633    6.39583917691791   23.83734177372559
H         1.20724223982119    5.73505494595723   22.80960812467471
H        -0.43534437664581    5.07402535838941   22.73917435942846
C         0.57758954886872    8.29498607027572   22.05959760300011
H         0.31556060017301    9.08401078396295   21.36023251696496
H         1.64500257447910    8.10106061289378   21.97315769222292
H         0.37334343127397    8.65252594037177   23.06673923319936
C        -0.14875573153304    7.36806208030968   19.28878828535163
H        -0.60296144568277    8.33861239969398   19.43400431383026
C         0.17309907355590    6.97760736485439   18.00296739179912
C        -0.18957536158384    7.81447694873563   16.80971797001224
H        -0.86634978842750    7.21900720429611   16.18196909572941
H        -0.72787941481938    8.72210759360992   17.13190220963666
C         2.81626646593249    8.44905757537057   17.58055471033390
H         3.42549650328762    9.20693002332182   18.10216337569521
H         2.27978885560991    7.86812118037080   18.33919218095821
C         1.79725448773715    9.16565512488988   16.68179758974612
H         1.17660060604244    9.82982126620564   17.30706911736417
H         2.33327338983586    9.78911117275277   15.95745154492200

