76
CSD_code = HUNHII | q = 0 | S = 0 | Stoichiometry = C29H40MnNO3P2 | MND = 6
Mn        2.20375750781273    1.15589533896878    3.24043726517690
P         0.05381309772730    1.68410994306377    2.72605064112453
N         2.20223883881244    3.28407006238599    3.24381260705118
O         2.20289342978008   -1.76558159920818    3.23258629966834
C         2.20292454108221   -0.60732461643205    3.23644641536953
O         2.77660391133680    0.80869727842315    0.39393585477852
C         2.59793351248488    1.03031329612328    1.50746239574751
C        -0.15090349703173    3.25893396076131    3.58047947721057
C        -1.32662279749805    3.81595160441526    4.05668893525227
H        -2.25560947603777    3.26608154180118    3.98709922505441
C        -1.31985596908135    5.07438374944319    4.64018165965464
C        -0.10403818760959    5.74950827776118    4.73931156041846
H        -0.08400891281082    6.72238962283717    5.21117883793597
C         1.07431270145976    5.20820012545576    4.27453304104920
H         2.00192340551068    5.74652443933406    4.40583534537179
C         1.08409480487922    3.94112756247114    3.67095611589154
C        -2.57914849311642    5.69907373415260    5.16283232656174
H        -3.42618802554777    5.02829908219875    5.03947375961589
H        -2.79294324668342    6.62744464807909    4.63289895412227
H        -2.47724161684889    5.93741905496256    6.22125683057650
C        -1.37009657291130    0.60874107638827    3.23242108183662
H        -2.29262393356543    1.17012776034172    3.04451645450176
C        -1.35380054370000   -0.67231481750483    2.40271312818149
H        -2.12038714164610   -1.35971564552961    2.75708116042634
H        -0.38377034504600   -1.16197268878907    2.49769723576087
H        -1.53366792713225   -0.47337068099456    1.34825365301231
C        -1.27933561743450    0.28728670662107    4.71981383051137
H        -2.18944476428514   -0.20928809932531    5.05354807902249
H        -1.14539282811961    1.19424096020140    5.30923385593290
H        -0.44031474655016   -0.38139069432157    4.90892498405731
C        -0.38206304004137    2.13038416932325    0.95804598567178
H        -0.11789418418210    1.24993761448866    0.35573627135039
C        -1.85838272530559    2.46971235691541    0.76432453034131
H        -2.00595819176994    2.86013965889643   -0.24191152286552
H        -2.16539978031071    3.23978552245595    1.47063761915718
H        -2.50250857640307    1.60194496619096    0.87979408486310
C         0.46809510178084    3.31529239810215    0.50207292375896
H         0.34282101049832    3.47429036077818   -0.56814171761447
H         1.52721626125249    3.15487874172380    0.69587541439196
H         0.15864598637282    4.22094141997420    1.02277430828281
P         4.34968355609144    1.68478687426542    3.76353623821903
O         1.63510633447106    0.79118929244234    6.08549122510603
C         1.81188805006510    1.02092923091961    4.97319426078244
C         4.55538168371418    3.25893235424701    2.90837825810791
C         5.73156871199234    3.81544279264847    2.43293635090865
H         6.66040148723489    3.26548362793264    2.50369628756755
C         5.72540984206317    5.07377784387407    1.84932420170071
C         4.50975389902273    5.74903166012359    1.74903400093661
H         4.49041248321783    6.72195075222227    1.27723328014070
C         3.33084281669912    5.20805810876714    2.21289774614345
H         2.40339025262686    5.74645160335464    2.08077457445809
C         3.32052071999660    3.94119073957505    2.81684677552565
C         6.98524630604804    5.69800922888030    1.32745742105912
H         7.83161716000842    5.02614996784159    1.44953868132147
H         7.20014771084029    6.62525281659892    1.85891935528511
H         6.88332812094168    5.93820791141903    0.26948205194625
C         5.77383271398634    0.60822937897111    3.26055762372616
H         6.69598346568992    1.16980996007465    3.44949718238981
C         5.75595371456416   -0.67206587086998    4.09148399837489
H         6.52192712848443   -1.36057139766445    3.73790275235464
H         4.78551120682734   -1.16104972873584    3.99707996119620
H         5.93605050880200   -0.47212602936030    5.14571310939549
C         5.68544997836825    0.28539741066313    1.77330376794343
H         6.59514918773028   -0.21355413612847    1.44196812725363
H         5.55487439928842    1.19215682749876    1.18286264160352
H         4.84524922393739   -0.38144442494299    1.58290677024462
C         4.78037404313260    2.13051037858160    5.53272090864875
H         4.51706537903719    1.24928340484989    6.13426967966831
C         6.25574566781058    2.47303322917404    5.72758520612781
H         6.40098034657346    2.86464502908793    6.73364593069298
H         6.56210726279985    3.24319485734719    5.02104660094748
H         6.90184459053602    1.60651839623719    5.61378514484677
C         3.92729953633165    3.31385401618383    5.98715709682859
H         4.05191527253068    3.47362627004718    7.05729503240687
H         2.86860787108821    3.15096817498612    5.79301002626035
H         4.23510639729889    4.21987125596245    5.46609882167048

