77
CSD_code = HUNHUU | q = 1 | S = 0 | Stoichiometry = C29H41MnNO3P2(1+) | MND = 6
Mn        3.09852773490426   10.05776073428524   11.45746106383280
P         2.37306078606560    8.02014630952185   10.63466218923897
P         4.45856276044266   11.53482692136503   12.58499452315132
O         0.65594460211468   11.65902949433725   11.23702010803336
O         2.21736483659828    9.07710471099984   14.07480224574237
O         3.87206189430461   11.12370939469167    8.83850898044194
N         4.90047933003559    8.77143441256678   11.62043303890949
C         3.30756777529068    6.96089973663656   11.79515352444641
C         2.87623490896018    5.75247727651295   12.31623087158472
C         3.59197138219061    5.11605795111315   13.32779548043147
C         4.73195636641205    5.73455090734269   13.82080883271724
C         5.19291440961472    6.93240549053097   13.29402280932619
C         4.49804635678951    7.53860938136249   12.26487719849719
C         3.10244158376534    3.82298743327945   13.89482986680054
C         6.11674228341525    9.39268949549442   12.09115844297603
C         7.33636853282243    8.73185106670513   11.98401639546480
C         8.49630553970810    9.34758517231842   12.40798430998895
C         8.47387148463063   10.64198416278978   12.92475204234582
C         7.25926671521877   11.30765692521093   12.99430136034610
C         6.07657006180625   10.69313498374963   12.58730749345207
C         9.74123479176266   11.29624100073675   13.36910426384065
C         0.60828188591592    7.47557319359027   10.75665754972955
C         0.07402087510485    7.70908883162663   12.16723402463143
C        -0.23628850873238    8.25548549420469    9.74902656051195
C         3.00224069435240    7.40184255529123    8.98234393841838
C         2.76783920829176    5.90681744894898    8.78796152936031
C         2.47358439813408    8.21806877138331    7.80161761738054
C         4.80472412336024   13.24285283245531   11.92973515575356
C         3.48721858207958   13.86050782489524   11.46075849835569
C         5.81926343826004   13.24850185386553   10.78846885406504
C         4.10620496049745   11.75389502508994   14.40748842378006
C         2.75019821080990   12.43411527337248   14.59593993472373
C         5.18191422051147   12.45715359250442   15.22935275585750
C         1.61674471440559   11.03428279252961   11.31879921475685
C         2.55612789120312    9.45154574604734   13.05080939345586
C         3.60788149130882   10.69114003202391    9.86476490843171
H         5.07155788062497    8.52331712189424   10.63813486121234
H         1.96515877411194    5.29936498829638   11.95391209642304
H         5.27899761769978    5.27617521899142   14.63025623071844
H         6.08267428626200    7.38620849691348   13.70351053833634
H         3.89077812067480    3.31422930251849   14.44183061987706
H         2.73801026224339    3.16780165040750   13.10707335852174
H         2.27702044281683    4.00721393883082   14.58230234554992
H         7.37582706560583    7.73683495372132   11.56251117854387
H         9.43748467684454    8.82602361374279   12.32401843732244
H         7.23616893975571   12.32561571930921   13.35280437553788
H         9.56399692901480   12.31303815645267   13.70797580679301
H        10.18981391461403   10.73063688977114   14.18446101639197
H        10.46096518541921   11.31972850273255   12.55261674366749
H         0.57810773396682    6.40421638175430   10.52349820572801
H        -0.93750871863921    7.31528486815534   12.24303441304148
H         0.68479478040033    7.21939852396477   12.92374014231964
H         0.03384604336910    8.77799250981280   12.38041452926951
H        -0.01618675497391    9.32242491317092    9.81474712357078
H        -1.29212705078565    8.11520514035087    9.97045009644139
H        -0.06286934527760    7.92529589135783    8.72982558268804
H         4.09118082966139    7.56451693197206    9.04975932107664
H         1.71024596686645    5.68715802765510    8.66515189063475
H         3.15460434589976    5.32881440953798    9.62609845641954
H         3.28085812139568    5.57933311266330    7.88563644045698
H         3.21940430065677    8.26290555479145    7.01087697873144
H         1.58186926279123    7.76030472785828    7.38328394931317
H         2.22584732710499    9.23742576203437    8.09699206972875
H         5.19968934031488   13.82933705374722   12.76835326486228
H         3.09580490113316   13.31231571950734   10.60306852565022
H         3.64992208263812   14.89232062679197   11.15663321202808
H         2.73158878564898   13.85066444482248   12.24239635870710
H         5.46750387630171   12.65520249404789    9.94856566974038
H         6.79005496872429   12.86729010463475   11.09538144760868
H         5.95292890187650   14.27004452418122   10.43821631618280
H         4.03832609217107   10.71847367009925   14.77261697881428
H         2.38272239609037   12.25576034371076   15.60433407185760
H         2.83829003708853   13.50939013781607   14.45876357592532
H         2.01047003312668   12.04786461024838   13.89079563176141
H         5.38136872310357   13.46352818987271   14.86869199525965
H         4.82667053758616   12.54327669575672   16.25472512793706
H         6.10858806377717   11.88925184675221   15.24765761445893

