71
CSD_code = HUNHEF | q = 0 | S = 0 | Stoichiometry = C37H27AuN2OP2S | MND = 3
Au       -0.10633487240339    8.30293541512058    4.98915401327580
S         1.20433087484332    8.61473843862625    7.07982668604007
P         0.37332120935838    8.09432205635976    2.69776614535570
P        -2.18951865425644    6.98834807158118    5.84353456354900
O        -0.51642022528052    5.74669609252788    3.97127673135283
N         0.48435071728095    3.14297405251650    3.88218025934123
N        -0.40571780045322    6.47365018745887    7.83638432659539
C         1.14588918372824    6.47047871005921    2.47481428090272
C         1.66452264621482    9.21978124887739    2.09650015191761
C        -0.87048369599201    8.15245121698267    1.37864855202697
C        -3.14502654699756    7.13944013772932    4.28616182326563
C        -3.56270085780249    7.15886093249745    7.04293366504866
C         2.26725251056353    6.21691947505798    1.68013713811714
H         2.71567655644208    7.01983925994904    1.11573030975295
C         2.49185295353344    9.79681216296049    3.05459226830568
H         2.31412230926653    9.58721801956361    4.10217559327301
C        -1.33532870033506    9.40789077532538    0.99042749808139
H        -0.93740119384177   10.29262939956935    1.47126001897493
C        -3.29003704191924    8.42147183677596    3.76548559753104
H        -2.80001660753482    9.24887768901336    4.26663618252620
C        -3.29053874749475    6.96240070000911    8.39610945886725
H        -2.29036132816156    6.68305509449844    8.69327115083801
C         2.79130035659366    4.94338799912322    1.63042611364643
H         3.65569198519041    4.74115733010841    1.01696462882332
C         3.52482148477274   10.63134115283853    2.66856721706921
H         4.16479432398906   11.07624792900811    3.41562850293169
C        -2.28002305718267    9.51611029032379   -0.01063716968717
H        -2.62482048053182   10.49097198047162   -0.32350030889953
C        -4.06675594068720    8.64165721330642    2.64427144989376
H        -4.19583380545653    9.64389101327480    2.26240928576918
C        -4.28668542031270    7.12522075685171    9.34032133540206
H        -4.06475568304717    6.96153156673936   10.38500264607512
C         2.22262748771509    3.91106577981113    2.36557635229992
H         2.64132516679165    2.91667204230695    2.32390426245490
C         3.73117201384507   10.89773280289276    1.32498258887626
H         4.53442697359099   11.55251523164079    1.02135015878570
C        -2.78484489392669    8.37398325055451   -0.61278239304570
H        -3.51970832404239    8.45920271025250   -1.39951433854311
C        -4.67976935401308    7.57276977659208    2.01188453523361
H        -5.28642227304023    7.74049382230815    1.13413007605484
C        -5.56128984018639    7.50469588179571    8.95227763313254
H        -6.33902370492635    7.63586396879945    9.69060545114978
C         1.11112687666849    4.14368013139485    3.16190872103725
C         2.90600866194213   10.32770850749562    0.36781176694354
H         3.06886605372278   10.53651627055287   -0.67958420988689
C        -2.35240468159828    7.12461248925341   -0.20138633589886
H        -2.75505364543476    6.23463878883874   -0.66234648800486
C        -4.51712272241726    6.29025838425352    2.50796536848000
H        -4.99337514476322    5.45592486285300    2.01275615494022
C        -5.83110903725727    7.72417789689385    7.61250492289511
H        -6.82071430642726    8.02868606646475    7.30223753810363
C        -0.45924023792073    3.48663603369447    4.84818066075700
C         1.87445499900645    9.48844589063887    0.74643500565886
H         1.23124327351335    9.04327544753769   -0.00033370926869
C        -1.39831215143525    7.00828723559655    0.79328982275456
H        -1.05538669922074    6.03263685835214    1.10661315230105
C        -3.76335986377918    6.07218011796443    3.64739970660106
H        -3.66173217988289    5.07249162690290    4.04758711516766
C        -4.84057287994539    7.55855661729458    6.66048895891901
H        -5.07331003879148    7.73824931856808    5.62100323990299
C        -0.95223205859684    2.57220993730821    5.76517145714482
H        -0.58735847245402    1.55587975377685    5.74758008371766
C        -1.90305694381915    2.96642673551632    6.69654912621039
H        -2.28434415180447    2.24173672731449    7.39964842831894
C        -2.34962539829357    4.27044905823621    6.74466067560315
H        -3.06896625276047    4.57822048581011    7.48635630652355
C        -1.85950952305091    5.20489667569159    5.83406635936163
C        -0.93485145578852    4.79699476891868    4.88312815637322
C         0.57852067149449    5.43853658848364    3.21189670194753
C         0.30919051882491    7.35035360223182    7.58144342722057
H         0.94536708636501    2.24992965005712    3.96479344380469

