67
CSD_code = HUNHON | q = 0 | S = 0 | Stoichiometry = C21H41N2PSiTi | MND = 8
Ti        5.45168193265983    0.93997554617902   11.45039200494647
P         6.13447899676009    2.81429883191127   12.92498935635857
Si        6.57275303294066    3.77142133264242   10.92762527033253
N         4.55049600227571   -0.09142651895777   12.67128992008260
N         6.92631357863649   -0.15778308437947   11.23288873895149
C         5.24024042738840    2.76279690251718   10.05492516346209
C         5.49188798054867    1.68300125689997    9.16338358718350
C         4.42684952119515    0.76018087381340    9.27110457103856
C         3.48752197409242    1.27664897547344   10.21393643547024
C         3.98611107690317    2.50450218682690   10.69561642934799
C         3.22342163975154    3.48095870498258   11.54389225064410
C         2.11512404113704    0.70839634199263   10.44006838274829
C         4.16081007678162   -0.45436548873002    8.42500777407262
C         6.55237543551131    1.70604944243335    8.09568130795484
C         8.34125451974525    3.37023879917751   10.28890978768662
C         6.33631123958910    5.67172963540571   10.80914332176972
C         7.82054765977514    2.66432525194109   13.74346948944706
C         7.65338679128438    1.98842381109488   15.10498248805447
C         8.99992176646967    1.84758929677549   15.80852965927519
C         9.64113033029308    3.21880806971225   16.00058711012295
C         9.78613104969090    3.93126445513999   14.65929609448654
C         8.43323513546363    4.04714885096790   13.96156940526101
C         3.77460491308055    0.39544745488256   13.78148031514325
C         4.35188741633643   -1.50522133338702   12.47838455360660
C         7.62073045331043   -0.62361670956478   12.41201476888404
C         7.40980917951037   -0.88367954067499   10.08500971020453
H         2.59513565688225    4.11101734675468   10.90766862334464
H         3.89937663437587    4.13097524108024   12.09955964731741
H         2.57341432367281    2.96997958317408   12.25487394856590
H         1.69020628021767    1.06168118185320   11.37904603987787
H         2.13604268724882   -0.38184871785154   10.45391861423072
H         1.44454447387952    1.01856476828694    9.63274344946793
H         4.94929429680904   -0.61352608030327    7.69070628374594
H         3.21931852762836   -0.33317938024841    7.88357615564048
H         4.07836188970237   -1.35712444643427    9.03579219337051
H         7.54088852293110    1.43181719949960    8.46236705026163
H         6.61919942919719    2.71377298244407    7.68381812037508
H         6.29413201947164    1.03165696751701    7.27890366672904
H         8.47059535860911    3.63756678233929    9.24613609929026
H         8.55076936184258    2.30891876102896   10.40783025989087
H         9.08230683762105    3.92165859346023   10.85770229490564
H         6.43556723802486    6.01229916290889    9.78402776560285
H         7.08329224201652    6.18593397494969   11.40360126645174
H         5.36059843672289    5.97800549196477   11.16858310484362
H         8.48613450755451    2.06438875594106   13.10973940248954
H         7.18017927189595    1.00836460204803   14.98954588817966
H         6.98435079431633    2.60210100845684   15.71528263337752
H         8.86665773736678    1.36016228581564   16.77727636169692
H         9.65900091498662    1.21831367082378   15.20491985407935
H        10.61965982169029    3.11214140274221   16.47492265685307
H         9.01240147295541    3.82021875060263   16.66115862394257
H        10.47216371476471    3.36692348440093   14.02231520602881
H        10.21245521074108    4.92587221623881   14.81087950437096
H         8.54883313497974    4.56344141602946   13.00711066444315
H         7.75025357380664    4.63995018068132   14.57512727088833
H         2.69267686398404    0.23707526084150   13.62193963722519
H         3.96173971977726    1.46351233251122   13.92837670973862
H         4.04562909999389   -0.13445555685567   14.71093475152365
H         4.67935203930441   -2.07961530073679   13.36250321273180
H         4.91840990002361   -1.84941585366052   11.60770821298897
H         3.28323661701708   -1.74002168299430   12.32098509359883
H         7.56636971181400   -1.72422559148372   12.49780719898657
H         7.17315500411473   -0.18166989933341   13.30498766202708
H         8.69188668942667   -0.35748254058407   12.37447659353382
H         8.47442734893763   -0.66136548656744    9.88730019056820
H         6.83258843992137   -0.64731391519207    9.19359360406865
H         7.34267802262386   -1.97458229721237   10.25477658618354

