119
CSD_code = HUNKIM | q = 0 | S = 0 | Stoichiometry = C48H60NiP2S4Si4 | MND = 4
Ni        6.86256080738721    4.34712409114426    5.87525544640344
S         7.61725638106373    3.82989513196719    7.91086129776965
Si        8.28882304052427    2.16049714856994   10.57596991704596
Si        4.58146220398074   -0.33004467843916    2.69459074330794
C         6.25844951560733    0.57631554671577    2.65653867992136
C         7.90964546912352    2.02775041766528    3.70248099914923
C         8.46566564850320    2.32132287648672    7.71997410342639
C         8.77866406367104    1.55078382600273    8.84345710984478
C         9.43826128672338    0.66508798075511    6.24487690494772
H         9.66474049645420    0.32743767965051    5.24179938196246
C         9.93784746915922    3.85284230484592    4.63868941709117
C         8.81432949375339    1.88784228673229    6.43775504575227
C         8.65197872139720    2.03748014963444    2.52717494057702
H         9.56368882844663    2.61591692473760    2.47748951308955
C         9.84292578759696    5.09589016086919    4.01649368012203
H         8.86450929916875    5.52268504804118    3.82956036053883
C         9.42281280667861    0.34075705048344    8.62175932936028
H         9.66927521507714   -0.27733595372582    9.47175217767171
C         8.86770249094381    0.86159805741722   11.84656998982792
H         9.94234599963537    0.71513397578948   11.81500037401870
H         8.39332155582440   -0.10088241609865   11.68577761069939
H         8.61393063825800    1.18506426325443   12.85037938873567
C         9.14769908225475    3.81717116046236   10.97835112626060
H         8.78138703115337    4.61270290299610   10.33775936129196
H        10.22347822109872    3.75019179328414   10.84351310341544
H         8.96062044974864    4.10840833463146   12.00749378980609
C        11.18587888317646    3.30140012328774    4.90502655753251
H        11.26025940117909    2.34806642733286    5.40891616029534
C        10.98885526277813    5.77128270304088    3.64274465926656
H        10.91264074885609    6.73414637659801    3.16009595728466
C        12.32864780028912    3.98466410582781    4.52862733015598
H        13.29936595985935    3.55684883355055    4.73311346344578
C         6.71140692136364    1.30580808844904    3.75288772073514
C         9.74206595729169   -0.11057921479190    7.34914687634182
H        10.22286216538324   -1.06914920647599    7.21933945996902
C         8.22730543151208    1.30045897353968    1.43898858854157
H         8.81255343061560    1.29496084248482    0.53108840959553
C        12.23226849183812    5.21446125029679    3.89718158449855
H        13.12937085880434    5.74280385771629    3.60971372044999
C         6.39110257403053    2.32880996658670   10.71690658761598
H         6.07924151267995    2.33809174801609   11.75699635317881
H         5.88236951093098    1.50391867953884   10.22614053325095
H         6.04672332506410    3.25060363699659   10.25991702776847
S         5.76039503481605    1.26064697617595    5.24793586143981
C         7.04504253492787    0.58465656591670    1.51018957071324
H         6.71315408859310    0.02827769003044    0.64776840321883
C         4.29213201354793   -1.11877148174823    0.98299166520842
H         3.34265622013506   -1.64369934892229    0.97388157742780
H         5.06217472896528   -1.84064092463910    0.73038057028594
H         4.25789666414913   -0.37354218924032    0.19497199665948
C         3.18549080236664    0.92995560924497    3.01813338066327
H         3.34230111055631    1.84396694950164    2.45205813438785
H         3.12442405623311    1.20146516872214    4.06662693557921
H         2.22285804687036    0.52146494579777    2.72551768284562
C         4.61599840481637   -1.73026204816447    3.99004178240696
H         4.78303368482545   -1.34513395715879    4.99038641314663
H         5.40479779916550   -2.44606459881630    3.77656063518517
H         3.67442561113960   -2.27065998900939    3.99669105213900
P         8.38397066309323    3.04865328627935    5.12017107685855
H         5.87859170127731    2.61000934879211    5.55627215254561
S         6.10806698376355    4.86453155763625    3.83964647351559
Si        5.43697594832449    6.53437710012805    1.17478078991356
Si        9.14254874445866    9.02534484163664    9.05571555141029
C         7.46591732178376    8.11833735094559    9.09392968978409
C         5.81511909299766    6.66636836282531    8.04811677584393
C         5.25936964909745    6.37292462597423    4.03067955375937
C         4.94639091193336    7.14356830992503    2.90726628136775
C         4.28613917126909    8.02870336662033    5.50586909765386
H         4.05944661005733    8.36617009568385    6.50896079950799
C         3.78733148909554    4.84081316022047    7.11197778876056
C         4.91041172661015    6.80613283456602    5.31291379586917
C         5.07280153393847    6.65650676325656    9.22342815734560
H         4.16124215018402    6.07783656282627    9.27315337158161
C         3.88254528835656    3.59785485472063    7.73430940051939
H         4.86105939170573    3.17131307551826    7.92130391779463
C         4.30186546137707    8.35338014821623    3.12903505433809
H         4.05542069310997    8.97155356407224    2.27909560616549
C         4.85819029096399    7.83342033323480   -0.09571337307572
H         3.78350604823456    7.97964554344563   -0.06445048138371
H         5.33231279192232    8.79596623577263    0.06545286654497
H         5.11235128878500    7.51024157477932   -1.09951691982912
C         4.57882340398467    4.87750025979447    0.77169799787712
H         4.94516352933794    4.08195950619728    1.41226589641093
H         3.50296602785708    4.94407283923642    0.90611729712197
H         4.76642130933085    4.58655366837726   -0.25743273426257
C         2.53916961723947    5.39193535506224    6.84558905528797
H         2.46456387957554    6.34520067061499    6.34160407117365
C         2.73677328237734    2.92223160507293    8.10812474371595
H         2.81321191722596    1.95942994247352    8.59086113187990
C         1.39656036677858    4.70845253559060    7.22207994765844
H         0.42574141828054    5.13602707444658    7.01756701386863
C         7.01315421904560    7.38863343069977    7.99764376067863
C         3.98227050760300    8.80443451197594    4.40166104677752
H         3.50119349194942    9.76285530123011    4.53153016324391
C         5.49729744764399    7.39369786382541   10.31156832413753
H         4.91205489183693    7.39909955382612   11.21947222269396
C         1.49322847984107    3.47874050525516    7.85364576281064
H         0.59625091034353    2.95021699801667    8.14117075350683
C         7.33480544274228    6.36671908554537    1.03451671462063
H         7.64706789668085    6.35773033852209   -0.00545485753743
H         7.84307864183377    7.19168779257375    1.52562945503828
H         7.67931536967757    5.44495376710946    1.49146360881054
S         7.96416842174681    7.43386617403415    6.50259250231315
C         6.67935414870721    8.10983295696682   10.24029922670164
H         7.01108050268596    8.66639425227991   11.10266416252793
C         9.43164859050688    9.81434032856022   10.76722755550556
H        10.38093874071368   10.33960419367767   10.77625917261565
H         8.66135607371904   10.53596126776450   11.01978646086454
H         9.46616835877571    9.06920051977492   11.55531941809981
C        10.53902189183891    7.76589752611471    8.73219063997061
H        10.38258830812517    6.85183513760553    9.29828623918695
H        10.60019053976943    7.49438890084610    7.68370364354697
H        11.50149180493461    8.17478028456793    9.02478994099741
C         9.10729863036457   10.42542773004392    7.76013634336126
H         8.94025137080260   10.04014144770416    6.75985447185011
H         8.31826032890747   11.14095197911369    7.97366925582618
H        10.04866471431675   10.96618194218175    7.75328490083312
P         5.34101530991191    5.64534962698045    6.63044356266821
H         7.84633422067634    6.08446760573995    6.19438325757953

