95
CSD_code = HUNKIK | q = 0 | S = 0 | Stoichiometry = C43H44N2O3P2Ru | MND = 6
Ru        6.51885440962393   11.13363738913077   10.49006418577772
P         7.89223879137572   12.86798510969848   10.54427882209509
P         5.05025002580791   12.03580917832197   11.92253182394171
N         7.15987106105557   14.36243972329801   10.33744912744676
N         4.19494160650152   13.43040412503933   11.53851340511186
O         7.26782368872249    9.37532006533218   11.72273722916029
O         5.46585180699565    9.24521049454181   10.49035822481111
O         7.72583901441775    9.96358559889166    8.88103860342419
C         9.54618802039761   11.84812189343413   12.41323268325518
C        10.31742585336706   11.77867651249518   13.55590567825727
C        10.46284330367850   12.90227424780563   14.35544045026000
C         9.83930337853224   14.08554297656793   14.00042447537227
C         9.07465480839500   14.16103288510632   12.84777023019326
C         8.92334048158633   13.03988602329499   12.04272217799089
C        10.56938786655082   12.82177568950793    9.46788887530787
C        11.45133803599955   12.76655620518812    8.40127617819420
C        10.97799560266308   12.74862754340374    7.09988747570093
C         9.61251882922155   12.79215588566313    6.86283170249343
C         8.73031704991054   12.84593027140983    7.92574331976672
C         9.19821062919037   12.85922471508912    9.23971671112226
C         8.01001994319323   15.49791894156081   10.01236102071991
C         5.79731669475623   14.48705293920589    9.82351376887256
C         5.34743173958487   13.45559479107500    8.81077225086031
C         4.68792885088660   13.91803656736627    7.67586073708994
C         4.21573082270662   13.03908258505725    6.71859549742682
C         4.39433824736658   11.67803078808557    6.90128196543849
C         5.04727691520752   11.21887569135604    8.03141193144563
C         5.53814171769776   12.08734432537421    9.00611164106067
C         4.69894729145858   14.64442729342281   10.91343454382466
C         5.99991811237977   15.32278843379697   12.94640698514948
C         6.39702790859731   16.25503831790116   13.88792542488152
C         5.93728853740129   17.55886681677952   13.80965123201902
C         5.08061052037899   17.92492208742416   12.78459506289829
C         4.67670992453200   16.98797740268570   11.84960943133551
C         5.13027751456226   15.67700292069513   11.92669893202235
C         2.86847291651427   13.66691427047840   12.09050990115205
C         2.88073270628368   10.69499804518568   10.88490264499727
C         1.92612305227096    9.70008461101487   10.82812418382350
C         1.77309858663372    8.82332380297890   11.89209899432736
C         2.58060295174305    8.94450987084780   13.00941063770801
C         3.53973055790755    9.94172188511373   13.07195879955115
C         3.68503684928007   10.83054558552259   12.01461561120111
C         4.88069008343370   12.87199887706446   14.66308658091243
C         5.35162995539673   12.92228756928019   15.96219541215331
C         6.49883313519545   12.23149536165961   16.31865494222619
C         7.17038005109657   11.47995709508856   15.36995133673543
C         6.70268872376698   11.43058647246604   14.06905174654028
C         5.55732816560201   12.12758136458026   13.69937707569456
C         6.30780885530696    8.72194180012560   11.25207428998156
C         6.14499988536920    7.25787516291705   11.62909855712788
C         9.00394017959465    9.39769829223273    9.08342503606321
H         7.71325921052171   10.44443483634506    8.03997297695756
H         9.39390426265214   10.97066788407223   11.79485207125041
H        10.79697134285036   10.85048645060065   13.83237319814005
H        11.05692913201425   12.85265724952265   15.25658606165699
H         9.94965156743259   14.96052064879767   14.62544214934429
H         8.59270186765132   15.08946394964822   12.58668276693271
H        10.94942822455657   12.83561812010455   10.47977763577280
H        12.51524089343176   12.73754634024377    8.58826528843788
H        11.67049050680184   12.70367015799315    6.27233704879940
H         9.23808552909587   12.78465699694951    5.84889920826812
H         7.66022344353620   12.88555158393785    7.75306393453639
H         7.65106789344346   16.39466546303561   10.52520717280988
H         8.03561154821797   15.69826633944880    8.93488139945909
H         9.02828135806676   15.28761929381538   10.33762770003542
H         5.77915301615795   15.45875051215841    9.31027432827420
H         4.54508241834761   14.98303315598824    7.53675488612490
H         3.70935523838429   13.41313616157773    5.84037246213538
H         4.02146351429397   10.97810710982278    6.16553066831225
H         5.15333650387204   10.14783110175320    8.18023680880964
H         3.83988514630062   15.05271270834867   10.35678417372536
H         6.36238295413553   14.30652663579495   12.99010776534272
H         7.06558729133481   15.95914651725917   14.68338675422083
H         6.24404140713980   18.28914503899063   14.54419707598737
H         4.72050424680684   18.94140100278645   12.71776079195897
H         4.00059587042126   17.27603595195592   11.05605602834735
H         2.85876603097632   14.54875723384085   12.74004898263704
H         2.53782676046320   12.80045308149481   12.65893033495254
H         2.15240084303384   13.83807147790893   11.27917209790804
H         3.03318222366388   11.37024160787079   10.05336560229695
H         1.30708984624651    9.59426602414524    9.94873438918238
H         1.03220166912306    8.03806783920682   11.84447061693139
H         2.47020965456553    8.25417745102546   13.83440521652957
H         4.18052777860721   10.02544682213065   13.94010704749891
H         3.99308887118279   13.42515772337680   14.40087824861032
H         4.82111857305455   13.50644115474707   16.70093652478205
H         6.86500143661284   12.27913414244609   17.33421171503791
H         8.06326803378402   10.93534350846029   15.64068385852177
H         7.21785149077634   10.83860393953922   13.32550629749954
H         5.84646108714674    6.68137981244781   10.75701175620797
H         5.35503662233271    7.18597900346403   12.37521205804338
H         7.07087797375477    6.87013938195961   12.04618746530821
H         9.19969622187092    8.62919506817085    8.32705371415759
H         8.99707959832101    8.93506808842622   10.07133651479086
H         9.79362523691704   10.15584892682622    9.04373964854295

