117
CSD_code = HUNLAF | q = -1 | S = 0 | Stoichiometry = C48H58CoP2S4Si4(1-) | MND = 6
Co       13.26835674996333    5.68096191417540   35.20055618642762
P        13.50570247184923    7.79474388251170   34.89284552292260
S        13.14726902321195    3.38020384982227   35.60030884196531
S        14.16358820095027    6.25360261705013   37.28143261870039
Si       14.62767985194232    0.51428549114910   35.40374666962029
P        12.36405534405651    5.04990311243511   33.35625228945439
Si       18.35178880096102    5.58994721159930   33.26639320964911
Si        8.08005077245863    5.86493395954978   36.81728134964006
Si       13.63892739652973    7.17979772666787   40.33112000814954
S        11.15326181168603    6.05280714178952   36.02998713915517
S        15.34122215993995    5.37615669700210   34.24973442207948
C        13.39743574343602    2.68670309294578   34.03761254323278
C        13.00107418365498    3.42454268919280   32.90982330461538
C        13.96257360082054    1.41527027424867   33.87890857512028
C        17.33381871477223    7.12763706657037   33.69835693745734
C        10.60119589733105    4.81963264406954   33.66765225422176
C        16.00239978228172    6.96263414539828   34.11890305431170
C        10.10065100859019    5.31293696804768   34.88213738990694
C        15.77664901785232    9.36356615291427   34.39505540106347
H        15.16536805967265   10.21284009991694   34.67416055946469
C        14.08337776455502    0.92262640237827   32.58690618774757
H        14.52177105673436   -0.05488567812946   32.44346920243720
C        17.84469401613848    8.41398760182751   33.64931741504724
H        18.86831697359843    8.55568627386124   33.33284803246981
C        15.22706796620504    8.08897571175008   34.43392147960091
C         8.72923473681730    5.19711236474110   35.16841420386491
C         7.92252193296664    4.56272894153904   34.23819792715506
H         6.86714404817817    4.46166415429225   34.44796440694428
C        17.09118801404700    9.52668613757745   34.00391699994693
H        17.53122444980304   10.51414531616080   33.97242529598891
C        13.14529813966622    2.91341045827366   31.63173821722140
H        12.84888398930189    3.50169958995615   30.77260254807916
C        13.67769100478887    1.64478608569685   31.47429153349968
H        13.79168952130008    1.22664328403610   30.48322475062021
C         8.42413502925964    4.04112064783322   33.05181792804279
H         7.76603504448649    3.53549028119673   32.35832009488264
C        13.25574634639033    8.65519443547185   36.45616775786402
C        13.37767037021045    8.34267662993869   38.86177097639634
C        13.55590520289801    7.84525665876042   37.56416952485954
C         9.76900304797957    4.17080518897474   32.76533086033815
H        10.18840302370028    3.77337930900360   31.84929297429045
C        12.79735944843754    9.95131932652902   36.61818902148236
H        12.55626193570495   10.55566682322806   35.75286840299709
C        16.02447076152568    1.53318223235181   36.20603616920096
H        16.86331114111170    1.65605155167550   35.52619597761085
H        16.39351065706806    1.06598173731399   37.11475395049181
H        15.66368634794873    2.52286183509041   36.46455850840557
C         6.17861297659072    5.63129979784068   36.84316299005617
H         5.90086948934886    4.58482190514157   36.77392733486268
H         5.69274389467249    6.16031450980107   36.02970528987457
H         5.76889399545061    6.01474380383639   37.77175601228254
C        12.93004170757557    9.64958113640785   38.99394431983431
H        12.78338509649438   10.04945704155020   39.98736781464588
C        15.38486551160067   -1.15183940293362   34.83503557712821
H        16.20189552311641   -1.00617190122453   34.13621050582454
H        14.64713729734497   -1.78947608269528   34.35875070903250
H        15.77933424511907   -1.69276011654490   35.68888334236183
C        12.53275965244368    8.76165504277138   33.70485720551656
C        11.34625320673453    6.62356306735199   31.24604023587185
H        10.37865791177211    6.54063776000603   31.72166190822358
C        12.44952949252314    5.99190919335739   31.80791486448987
C        13.07586418297909    9.30752940469171   32.54773962811448
H        14.13003139756971    9.18784359129573   32.33895720197421
C        13.23898004015539    0.08752746948029   36.64223650220339
H        13.62700180151579   -0.46152923216254   37.49553444716259
H        12.46477688288918   -0.51883496848337   36.17984417764003
H        12.77424321713687    0.99555282811386   37.00890394473189
C        12.64912706503381   10.45444313890899   37.89952536428766
H        12.29904791807470   11.46756322099065   38.04467372973793
C        13.70212054016820    6.13337872811986   31.21308986229722
H        14.55999023700318    5.66127908932997   31.67407043901263
C        11.16639783295451    8.88684510571612   33.95040182613972
H        10.74818892835789    8.43437526303589   34.84022954342663
C        11.48952345099294    7.35279214440544   30.07962291571781
H        10.62672618983395    7.83342083493932   29.63936427145407
C        12.26678535051916   10.00428596337345   31.66862489879112
H        12.69545476091991   10.43722621120508   30.77528735315141
C        12.73140098199812    7.47283152205530   29.47896427336389
H        12.83731437818645    8.04341648392787   28.56645344224401
C        10.91335742824098   10.14387260183611   31.92564429511871
H        10.28564071621348   10.68967458751511   31.23461729080767
C        13.25211630489051    8.14702221906632   41.93984032657254
H        13.38471539602644    7.50296527860743   42.80290639977758
H        12.22923266856052    8.50831015208624   41.95755132382644
H        13.91038699557878    9.00037584010522   42.06684222227474
C        13.83977695569118    6.86980388819653   30.05330477162297
H        14.81293287352186    6.97486412919922   29.59380924001501
C        10.36259547590745    9.57563168850704   33.06392072272018
H         9.30348344315823    9.67142039328514   33.25939788585548
C        17.57377168073058    4.58523131554409   31.83828898264034
H        17.28797841974676    5.22566133387377   31.00819135606543
H        16.68525710175736    4.06369385237887   32.17680395424452
H        18.27030396197202    3.84310210607069   31.45831701527732
C        12.41538235383554    5.72143559050371   40.23391015004546
H        12.54857974970010    5.18421016557347   39.30118034918697
H        11.38582045955027    6.06734824832407   40.26997495788290
H        12.56228843185188    5.01692695005495   41.04775031399790
C         8.79489126734770    4.88463663714034   38.28738901638801
H         8.49964939011006    3.83974810097574   38.24796384376701
H         8.45914134492864    5.29147804523438   39.23714191862109
H         9.87828972802422    4.92158582216808   38.27229950520076
C        18.64779374337651    4.50214087002300   34.80349547260870
H        19.18453205329401    3.59276756389799   34.54812301365197
H        17.70178887602748    4.21755976489168   35.25004220309125
H        19.22421364787404    5.02994337500895   35.55826103569464
C         8.39153547334378    7.74124200857019   37.00803774691896
H         7.81508983036540    8.15208226485508   37.83222556779450
H         8.11648599605144    8.28507279260370   36.10833591318364
H         9.43996429085055    7.93559199961071   37.20549075697422
C        20.06567486788266    6.17227043828780   32.63853864021751
H        20.67191256941203    5.31555415884857   32.36342188094834
H        20.60803653964829    6.72200079864532   33.40056669281599
H        19.98368199434026    6.80794938425413   31.76286013490467
C        15.45101444730318    6.59538272428014   40.46876095666931
H        16.13626108183532    7.43527450377020   40.54501002747413
H        15.72569043601170    6.02232986465287   39.59065383745386
H        15.59690628508344    5.96599594967904   41.34210972152776

