117
CSD_code = HUNLOR | q = 0 | S = 0 | Stoichiometry = C46H66N4Zr | MND = 4
Zr        3.78265043759126   11.06311990229104    5.92503271934685
N         4.75167069714436   10.68695356238991    7.71552768901425
N         4.98046266888990   11.21503947126028    4.23982173124511
N         2.78351254675700   12.81254520774650    6.12080272452944
N         2.45547371130000    9.56237590307980    5.62983818679814
C         2.70866350425475   10.20586782308372    8.84491290117677
C         1.97633224560375    9.98374834473808    9.99588295509885
C         0.50353385133581    9.59784843859886    9.95594837877143
C         0.29349465176802    8.30345531176571   10.75446819838997
C        -0.00482714432487    9.35488675282626    8.53152649551869
C        -0.32118079653063   10.73309463503189   10.57795564516905
C         2.60857164673258   10.13182278876657   11.23185492561391
C         3.95738148110347   10.44110779284508   11.33132015300096
C         4.67653568025612   10.57029880414330   12.66753131113875
C         5.27667739954940   11.97913605318837   12.77926845665479
C         5.79606291908375    9.52233569469828   12.73668638146381
C         3.74956783783409   10.35381035577478   13.86692490937084
C         4.68243491514504   10.63448619955676   10.16278147193901
C         4.06929143632769   10.55289506931732    8.91071548227191
C         5.78955756593718   11.58570717895607    7.55500904487403
C         6.00400570802501   12.73093157920561    8.34261061031851
C         7.01316746487421   13.61757113986527    8.02004077756679
C         7.81539626866031   13.41035908498285    6.91057813937974
C         7.63538833024459   12.28410841287411    6.11261762463663
C         8.49021971902276   12.05338348304840    4.90099223674718
C         6.64483312768005   11.36404479837637    6.44343975643318
C         6.51389833574037   10.08870780156112    5.66838631851369
C         7.19954173827761    8.94851336635416    6.07684247624003
C         7.96442908063347    8.96338166151802    7.36792847013807
C         7.16153816485422    7.80667450436472    5.28154381103933
C         6.44146415926474    7.80173308872757    4.09882391129944
C         5.72373579202760    8.91262833054730    3.69882553996639
C         5.73646084430191   10.08293745644450    4.47945439474531
C         4.45175637304138   11.49793912025670    2.99318683887288
C         5.12840948475419   11.24677716919181    1.79361891225387
C         4.56438171985682   11.58887355395624    0.57572732248465
C         5.25628209419610   11.30351191288693   -0.75045972685976
C         4.36520786701299   10.37643723220443   -1.58934069336251
C         6.61647339768623   10.62190392181436   -0.57614279245275
C         5.48002616200590   12.62554929425409   -1.49748594169629
C         3.32133495473821   12.21383956459554    0.56938866137267
C         2.64790149679350   12.53335087598409    1.74567840341546
C         1.30775448123020   13.25262547669417    1.67115571709235
C         0.76332527089712   13.63081596815056    3.05212470607111
C         1.46681667874173   14.54643374573271    0.86002404754367
C         0.29151386615549   12.32926377902242    0.98537352587771
C         3.21796903677836   12.16587811959309    2.95187343804470
C         1.72316824366069   12.95781654250588    7.09529822499888
C         3.69282835209114   13.94248497333520    6.18754044140431
C         3.08389126015520    8.25946623122922    5.77067916279691
C         1.61241174326427    9.58837100409458    4.45218718172431
H         2.27756241191567   10.09972928536828    7.84974969039547
H         0.91282111167832    7.50815367720276   10.34517233554846
H        -0.74829235246275    7.99371380415103   10.69965469047725
H         0.55148430461968    8.43161103915709   11.80176279668739
H         0.57118309573082    8.57534434347081    8.03954921540670
H         0.04836315773324   10.25938489093168    7.93028755928374
H        -1.04560380256210    9.03757785984582    8.56943051711856
H        -1.38033490130054   10.48417004829253   10.56103132490197
H        -0.17278861015444   11.65397112110480   10.01718437531238
H        -0.02861377317369   10.91134845889240   11.60940528791684
H         2.03139410199094    9.98639089645954   12.12785742197474
H         4.49083366509115   12.72838270145114   12.70456539268152
H         6.00177073193301   12.16431368356306   11.99163403243385
H         5.77803356983299   12.09972357921841   13.73762247070318
H         6.52513310486071    9.66962724109399   11.94492875101228
H         5.37967166153557    8.52233268013867   12.63464019592912
H         6.31297932535031    9.58647545131855   13.69222735668166
H         4.31756906835847   10.46516759472815   14.78862247548260
H         3.32244316926204    9.35383235596158   13.85562581069768
H         2.94586394350371   11.08642587128751   13.87780879558356
H         5.74350961730377   10.83319903585364   10.20226970566740
H         5.36338018125481   12.92295649833689    9.19347686865105
H         7.16680556167295   14.49250328564658    8.63582609799717
H         8.58848259373614   14.12249008711703    6.66341352474869
H         9.26809511642553   12.80930163017848    4.82590057810410
H         7.87378879170735   12.09533011179563    4.00276550250436
H         8.95471782381613   11.06873504299980    4.93557278676683
H         8.51373853467320    8.03499613996453    7.50385600232761
H         7.27368937504946    9.08623342372417    8.20251958151152
H         8.66483324392829    9.79722794996627    7.39453050121308
H         7.70053398546015    6.92289559475979    5.58847954259447
H         6.42502411750483    6.91124284374408    3.48622473542991
H         5.13606327499136    8.88136875927076    2.79047790123124
H         6.10752633315431   10.79842907087017    1.84820411277966
H         4.18813583826390    9.44371192124313   -1.05766603570332
H         4.84794198395224   10.14715497391773   -2.53732820421316
H         3.40307448518526   10.83481417346020   -1.80002256866226
H         7.29989225422039   11.25128650001576   -0.01108374061816
H         7.05859715167885   10.43940977177158   -1.55389485266159
H         6.51433963534964    9.66461009003260   -0.07027336307734
H         4.53898405306851   13.12320766309647   -1.71384305874440
H         5.99320199261504   12.44301921904433   -2.43964142883645
H         6.08901695432066   13.29695726601988   -0.89590847119763
H         2.87318762903470   12.47218667288499   -0.37619536613504
H         1.46357112229988   14.26937740436386    3.58490269264037
H         0.56504055482499   12.74960730122059    3.65864216105244
H        -0.17227781392915   14.17490934898873    2.93417372775830
H         1.76820914700982   14.34309629288225   -0.16337887570419
H         2.22099436060909   15.18315644607250    1.31720301513236
H         0.52488960279259   15.09062091043213    0.83194536047407
H        -0.67926087210742   12.81665711662787    0.92074882931026
H         0.17999395575783   11.40792326828494    1.55356443089685
H         0.61170081227108   12.07145021092761   -0.02051797458407
H         2.75267440572000   12.39542563721497    3.90994294837304
H         2.09722174324477   12.94685508393882    8.14141891756530
H         0.99895106926595   12.14616487720646    6.96522204131059
H         1.19048996662993   13.91406993638579    6.95083587591569
H         3.17234891424159   14.87904572425999    5.91486552464625
H         4.52660444608089   13.79853276214846    5.48278355418492
H         4.10685847529503   14.09396958162012    7.20583959241846
H         2.32396421324855    7.47876977077263    5.95763812071883
H         3.78245651942056    8.26594639615178    6.62124397021183
H         3.63573736934133    7.95451659553371    4.85757927346062
H         2.18604116766979    9.45267614034884    3.50936759573661
H         1.07677321418333   10.54300336422233    4.40916501728561
H         0.86168564202700    8.78003303713504    4.49327209519483

