67
CSD_code = HUNRUD | q = 0 | S = 0 | Stoichiometry = C30H29MoN3O4 | MND = 8
C         6.52126337463650   18.68874246093003    1.54121048780622
C         7.61399688013089   17.98212591449562    1.02685814981303
H         7.46236310968603   17.32164309619157    0.18444450375024
C         8.87217575093998   18.10544018919668    1.58147357953372
H         9.69825886818688   17.54234556047677    1.17174736713526
C         9.07926071023314   18.95637730831024    2.65488397633135
H        10.06421554383140   19.06376748212209    3.08482001057975
C         8.01175545810390   19.67287445626054    3.16977332501405
H         8.17219269250262   20.35103648278390    3.99742771792818
C         6.74635553004076   19.53502108607913    2.63064000825950
H         5.93085799986382   20.10000487437088    3.05922564002571
C         5.21264913325117   18.51316559134426    0.91623079098226
H         5.27347777134183   18.21026428903809   -0.13075447883113
C         4.05647181473859   19.22388811608780    1.30355874643200
H         4.10318634072774   20.10484442972999    1.93473000176826
C         2.86998742085575   18.84038574285091    0.59622462974974
H         2.99477877241941   18.60486514113654   -0.46132193173001
H         1.97145585153801   19.42985683770380    0.76980828032486
C         4.63345043410313   16.16920516598956    0.90620506161390
C         2.10154994015801   16.83640003909755    0.94000143258573
C         2.00086046328469   19.54473505045097    3.68669793930962
H         2.17218700553281   20.16497022848732    2.81967563836865
C         1.36819062000778   20.09962748568865    4.78402951026434
H         1.06850685244274   21.13595216961713    4.75867789687891
C         1.13304596580774   19.31292993289554    5.90223435592934
H         0.65155703527199   19.71580982257038    6.77989035451237
C         1.53396666347031   17.99296631386981    5.84362931051586
H         1.38930052905147   17.30178934515413    6.65944131846079
C         2.14914391276460   17.51690654659358    4.69195813206666
C         2.59263707347260   16.09582810224102    4.64768772978138
C         3.59126204955209   14.38594891634734    3.44285395595225
H         3.21085185432309   13.86333835342733    4.33622824358634
C         3.23258638099956   13.56694059599712    2.20939191594788
H         2.14750858139296   13.46435568677991    2.15652742740096
H         3.56085427164553   14.08807941010323    1.31107736565978
C         3.89454622898567   12.19346389399725    2.29492019981998
H         3.49335430826186   11.64897110724944    3.15300927296675
H         3.66312422676998   11.62007721749279    1.39633459975918
C         5.40824689168141   12.32658727951016    2.44289827066322
H         5.81288191916595   12.82851441082122    1.56237747981216
H         5.86364748790835   11.33676476091430    2.50744461839988
C         5.76336167787488   13.13607889772551    3.68903095114460
H         5.38656061977908   12.62550460252779    4.57925350722572
H         6.84705507549346   13.23301706292508    3.78203097503138
C         5.12589763836409   14.51422374746018    3.58626365599939
H         5.52465975463148   15.04287124935472    2.71369764182357
C         5.30063914075101   16.66832358005528    4.76712269920303
C         5.47786836447885   17.31146116551121    6.09858308449300
C         4.85616805472546   16.80256159711996    7.23602942894060
H         4.21799637132479   15.93356716411687    7.16418360943031
C         4.99441162164420   17.46038493532542    8.44553065766112
H         4.50181356211502   17.07125141312021    9.32407995911211
C         5.75697893066976   18.61356408457674    8.53232765692267
H         5.86650399046838   19.11859934400451    9.48067095056734
C         6.36992781040926   19.12520341528906    7.39983109333079
H         6.95936561911608   20.02786492339510    7.46453713780305
C         6.22269474049132   18.48395180538562    6.18436097708085
H         6.69045442471821   18.86790363822522    5.29085965681857
Mo        3.57916371987483   17.24142776002919    2.11294716606037
N         2.40711287759327   18.27595343728909    3.62008196484552
N         3.03503828007425   15.71954354252047    3.44958267343136
N         5.43273240006968   15.33183862929897    4.74769447061931
H         5.41608123943127   14.85547039008388    5.63921401950326
O         5.24188347248658   15.57726136877773    0.12102755823579
O         1.25346677750869   16.55091274667586    0.20990159621925
O         2.53878708100720   15.40170990137305    5.67212316793596
O         5.12751303617811   17.37223870208238    3.76626090525604

