54
CSD_code = HUNREP | q = 0 | S = 0 | Stoichiometry = C17H33FeN2P | MND = 8
Fe        1.05673215958009    6.95573782309489    2.20888386495345
P         2.60858932255741    6.54442283193461    3.69253973480486
N        -1.08664621988548    6.24284214686940    3.81980986455985
C        -0.22411213872194    7.86448057955047    0.74505351392873
N        -0.16650288100149    6.48348541396676    3.21969648673018
C         3.45315344954079    8.21677801304708    0.15112854849935
H         4.11941923575838    8.78757084027029    0.79316996036086
H         3.44796239857725    8.69057557087372   -0.83275036078833
H         3.85785014661447    7.21237571499584    0.03699448090677
C         2.05894718996035    8.17724395162577    0.70269167101117
C         0.98594950886362    7.47447449675932    0.09473573387836
C         2.04610423883998    6.79647493924183    5.46268899744641
H         1.21609612420160    6.08914522266953    5.58410048958764
C        -1.61153335962694    7.48254129848641    0.33486392040703
H        -1.61723903096812    6.50392541106442   -0.13714584190979
H        -2.00983483575078    8.21155707360185   -0.37370205860341
H        -2.27261838708819    7.44789273265672    1.19781061223642
C         4.20692228425403    7.46759098725428    3.69046597605932
H         4.60045136526896    7.49286992073985    2.67745929992394
H         4.93037688334416    6.98347481802885    4.34454512816891
H         4.03823070500264    8.48854680265093    4.02476344136769
C         3.27574669131628    4.80164007681481    3.71714405431608
H         4.06118716423427    4.72559163430813    4.48003185090698
C         3.08907418575302    6.53586528215277    6.54371237999903
H         3.49760993996932    5.53114755498794    6.47217640418978
H         2.62696389809862    6.63933408678081    7.52476334286770
H         3.90445973494425    7.25293483200773    6.48252446211450
C         1.47340060650907    8.20606163190321    5.58755810584335
H         2.26236230805710    8.95382179421510    5.52754939273349
H         0.96405919424734    8.32852908213530    6.54180532967965
H         0.75454639452487    8.38506487429511    4.78932379689367
C         0.10149189734274    8.87123779297297    1.70887644521254
C         2.15107646100145    3.82096116195530    4.02188854280573
H         1.79674306188532    3.92420951891029    5.04502815156634
H         2.48976811894520    2.79619691455867    3.87909029631707
H         1.32127263191952    4.01408460440245    3.34338969605724
C         1.50221676065831    9.05870478025867    1.69508435556183
C         3.87339827292900    4.51561569644789    2.34354167243606
H         3.11647247289947    4.72167168065619    1.58747259681149
H         4.17283942044303    3.47220328697944    2.26470560597334
H         4.74494362956076    5.13776975739396    2.15075722910806
C         1.09633128071598    6.59314675741515   -1.10795358147123
H         2.06787950915507    6.10757782558942   -1.14241033679109
H         0.97476533772668    7.18989640203934   -2.01459376890706
H         0.32978774231755    5.82335385315262   -1.09619173327131
C         2.22169260140175   10.17207865178302    2.38979389371418
H         1.88909279140844   10.27915961947763    3.42014056916787
H         2.01950486014084   11.11284299400090    1.87313112423026
H         3.29668026593980   10.01393277147207    2.38822173666519
C        -0.89736710268729    9.66277404436189    2.49357931774877
H        -1.65797854104589    9.01315400576999    2.92372552622293
H        -1.39736180791799   10.38278916471039    1.84312336302568
H        -0.41606879381684   10.20924850714214    3.30111119025205
H         1.15861085209617    5.60259276957807    1.73489552448646

