105
CSD_code = HUNRAL | q = 0 | S = 0 | Stoichiometry = C41H61FePSi | MND = 9
Fe        6.74625814326469    5.16094327488156    4.00074358054826
P         6.61160674604709    4.14210780955864    5.91893672852905
Si        7.33382881776159    7.23985521778682    4.58521675854157
C         5.97873633317299    5.61492448126359    2.13585724332547
C         3.54913623357519    7.44971375552905    5.91928234451203
C         5.08078463220351    8.54344417108779    7.43014918535780
C         6.80723979568246    9.87754374938543    3.45608678029100
C         7.70106390857822    4.12294235196521    2.41989857635362
C         9.28709172247638   10.06608006498891    3.52175380257422
C         4.85488853143471   11.23162244823069    3.88701660657449
H         4.27390107826944   12.12507255996037    3.70806328818264
C         6.35597690264340    8.86838234872908    4.32205800066810
C         4.63776228194728    8.29486012322605    6.12784969812910
C         5.17397367844639    9.12802151032602    5.02386385490900
C        10.51370177031411   10.10659264893298    2.88026452469609
H        11.41005637980449   10.25074170296863    3.46776780644395
C         4.43053066367859   10.28396040694238    4.79513924640818
H         3.51906673687471   10.43934151282196    5.35749467225652
C         9.45560327302568    9.85840601312904    0.76572382301446
H         9.50946195062682    9.80241471937921   -0.31317495267820
C        10.62049577879238    9.98160495918153    1.50193791757745
C         2.73844343806496    6.36372611230107    9.46521213662031
H         1.79311669431161    5.91065987924507    9.17577370979318
H         2.55518690088638    7.07174282275709   10.27142309693348
H         3.39002127844547    5.57993745262657    9.85367616714639
C         8.20885868860185    9.81673026145365    1.37848889135128
C         6.22151184189492    5.19522962903311    7.36129093987960
H         6.98029141602834    5.96560848614085    7.44879494433604
H         6.18398325849022    4.61055494554360    8.28016301420780
H         5.27071014466138    5.68475467697289    7.18212170784901
C         7.38533544050961    5.46309314420610    2.05110794688856
C         3.38759704929875    7.04590535408673    8.29757815349126
C         6.05927527199462   11.03335957307478    3.24333267880561
H         6.44684092952757   11.79018067410775    2.57551842582066
C         5.24521004868683    2.86765182328590    6.04698194797337
H         5.35351596568516    2.24562367431100    5.15451820453200
C         6.49209789751950    3.43414639113526    2.68555721885839
C         9.22374523149884   10.27280189934177    5.00430882077406
H         9.16345022763945    9.31295916620648    5.51396957598127
H         8.34216772070560   10.84935268671176    5.27466265910874
H        10.11192521841228   10.79608991310016    5.35169615288998
C         5.42714447341127    4.36241864060220    2.55352173952401
C         6.99095522966417    9.75833705260581    0.49846765677588
H         6.84385292477116   10.72555711592790    0.01591665726946
H         6.09502896475405    9.52607418195178    1.06550533261897
H         7.12006256930153    9.01698397768762   -0.28894354040162
C         2.94265601416314    6.83021706817097    7.00237593143441
H         2.09525088031090    6.18004729074983    6.83149592468598
C         8.12241993565513    9.86575381839029    2.77115491473695
C         4.45952314822835    7.90658771169416    8.49298211415057
H         4.80361873132352    8.09817008952411    9.50016690635237
C         3.05403352082953    7.20795449882494    4.52866309909993
H         2.82394380752915    8.14591705560350    4.02559207090676
H         2.16584006594890    6.57931944685507    4.53241933495317
H         3.84712110749123    6.71416501842755    3.96971921858148
C         3.92437340357623    3.62479346051437    5.95621516194229
H         3.64557480333483    4.02101283589328    6.92915004815460
H         3.12034125695985    2.97537033312598    5.61225708725447
H         4.03308783425705    4.45850192332927    5.26559176961426
C         8.10656781741158    3.26410471920153    6.61744491417888
H         7.81860117159668    2.81197075459099    7.57335032135982
C         6.18332693655917    9.52715929407674    7.68016688199733
H         7.08325971357348    9.23474524409454    7.14379648912365
H         6.40723642193345    9.59441658074751    8.74224700762711
H         5.89463704408999   10.51468970582621    7.32081910385752
C         9.06089891965417    3.52532884143714    2.25417005545977
H         9.79166371064462    4.06060317730715    2.85682855130382
H         9.36709511783474    3.60358826845179    1.20951586359823
H         9.07379971182920    2.47514735679183    2.53309454413095
C         8.56400415401483    2.19062680611577    5.64439620226171
H         7.80255699265752    1.42266677594191    5.52069684624034
H         9.47864269335757    1.71043792504415    5.99099598384425
H         8.75771116306477    2.66455602962807    4.68683131926821
C         9.22946052668992    4.26483657305315    6.85632244918139
H         9.36186409790668    4.87741985911498    5.96514418652793
H        10.16263702204276    3.74447659026588    7.06726997412359
H         9.00888178253174    4.92228669927712    7.69264006841599
C         8.36140380434055    6.41017317374981    1.44729063596568
H         7.99691009428426    7.42900823768088    1.49554067365011
H         8.53572405281308    6.14624320480669    0.40109982203034
H         9.31324123627473    6.36670712615952    1.97049957965726
C         5.26760743300087    1.95941324680182    7.27217764045371
H         6.13641359025145    1.30596790455758    7.27672534792307
H         4.37750398078775    1.33025048631350    7.26775728432678
H         5.25969193776080    2.53856637928896    8.19247948696070
C         6.35631194371211    1.94748604602403    2.76249818394908
H         7.08332375246472    1.50404559381810    3.43632770968533
H         6.52550532698071    1.52904297503464    1.76721523442664
H         5.35873532015490    1.65209546379987    3.07698048623070
C        11.96279076408967    9.98977459724034    0.83375579128789
H        12.63823642066631   10.68352942899095    1.33008716634191
H        11.87525467297693   10.27083247580483   -0.21325039268166
H        12.40888042851504    8.99565832618484    0.88231457127716
C         5.21104363582687    6.80027061593560    1.65012568785790
H         4.14249316518035    6.60209117413852    1.65458644388214
H         5.50858354972987    7.03690542659791    0.62820700548872
H         5.40390173308682    7.67140778661713    2.27336989775168
C         3.97419016719948    4.01544037814608    2.53854610418815
H         3.77239545166838    3.14070247107312    3.14954267444399
H         3.65860078266657    3.79749971749009    1.51531118996177
H         3.36798964916024    4.83543515124487    2.91233136898914
H         8.08726027544313    5.21540293468270    4.48022308840181
H         5.64002146990997    5.85064561119643    4.59315479471863
H         7.70672873431774    7.36726698602448    6.01967106157474
H         8.62213293634245    7.54480996384570    3.93644339161478

