62
CSD_code = HUNSEP | q = 0 | S = 0 | Stoichiometry = C27H27N5O2Ru | MND = 9
N         6.83330185565749    9.13372415113995    9.35151874622782
Ru        4.10976428839206    9.03231041165587   10.08177482390131
O         4.51910078464057    9.73651929198696   12.02573406707996
O         3.47090516199241   10.93520457681667    9.52601358714794
N         5.38390947576009   12.85715396102687   13.23748696112608
N         5.28638055627945   11.50094873104791   13.32441996561011
C         2.85794554243179    7.36856090958861   10.94778721853793
H         2.46795804837809    7.21203309750062   11.94885282153097
C         4.12904037667075    6.81919480876385   10.61100099832382
C         4.57758374907284    6.96752049075391    9.28471801474358
H         5.51262335079430    6.51115747438977    8.97638434404859
C         3.79492652186165    7.64681410111351    8.31507776528888
H         4.13424843169021    7.68950109841887    7.28561414400098
C         2.54647184211301    8.19939975178777    8.66858844950131
C         2.06793064064731    8.02095216082543    9.99479222125350
H         1.07388151243287    8.36697688048128   10.25423550167824
C         4.94040876462502    6.06101483855559   11.63624833368139
H         4.40497804645900    6.10633893805095   12.59199900207434
C         1.70501934949486    8.91946032483851    7.65772670659122
H         2.03656098057299    8.70028660973607    6.64527836330988
H         1.78732057647365    9.99631285879137    7.81776496640397
H         0.65698855684951    8.64172266091830    7.76016734942028
C         5.58781842857918    9.48754488018870   14.66340109056576
H         5.02395379598645    8.91169616443005   13.94880060217224
C         5.79360315344895   10.84688166560312   14.45167451590114
C         6.51274086545006   11.59138916215993   15.38438333374207
H         6.65560123333441   12.64429568537843   15.20485112652061
C         7.02456885829697   10.97639470515165   16.50970865756253
H         7.58161394270452   11.55885706086648   17.22860249138947
C         6.82968608175888    9.62037350098685   16.71776403382843
H         7.23369530108145    9.14158631354451   17.59725647732015
C         6.11186980037203    8.88337609054734   15.79170810414881
H         5.95308668802449    7.82641452136563   15.94889595204606
C         2.12753082087392   13.97899963281580   10.30374338932285
H         1.89088601315504   13.69955611417838   11.31988102571073
C         3.03516689457363   13.21742362601700    9.57587698931520
C         3.30756787094730   13.54431350792963    8.25226806728834
H         4.00079076103699   12.93373939736515    7.69318105947657
C         2.70744043675392   14.64888817107001    7.67514070186478
H         2.93159400556514   14.90892298819068    6.65125494264306
C         1.81432417244472   15.41468066675979    8.40622582442998
H         1.34186766280255   16.27356796428870    7.95312416721910
C         1.51910895344721   15.07356013487991    9.71625299088908
H         0.81094773102900   15.66185532331745   10.28112330556095
C         4.71014649334121   10.97540050786018   12.20282006447278
C         3.65852718857698   12.00023698533198   10.16737253675007
C         4.85848160947879   14.66446667614699   11.71827352857582
H         5.59353677999619   15.18447312120688   12.32651730846853
H         3.88665829320160   15.12882420227945   11.87515863727094
H         5.11531437225230   14.76116752617071   10.66602156699085
C         5.07879959348160    4.59031997179539   11.23205374192790
H         4.09999537978526    4.13355848298972   11.09728314471518
H         5.61156960759806    4.04372590112271   12.00603493174154
H         5.63588008494662    4.49522322239686   10.30319294214655
C         4.83961054800953   13.23289439139853   12.11736009120912
C         4.35501646659212   12.09804690889031   11.38552337545365
N         5.94777698880269    9.81578107532230    9.70141305293861
N         7.76863639370236    8.58545907256200    9.00917840363033
C         6.31285222588900    6.71267091672419   11.82766792468610
H         6.93182005216773    6.59610300779614   10.94122507117916
H         6.83091691179512    6.25833453979260   12.66862183090479
H         6.19554912543793    7.77818808497669   12.02687864652968

