84
CSD_code = HUNSIT | q = 0 | S = 0 | Stoichiometry = C35H37N5O6Ru | MND = 9
C        12.03371782079715   -1.85817971268729   -0.32476100448105
C        11.92678961183401   -2.47591445896359   -1.56947472295659
H        11.53973689452250   -1.90476638342626   -2.39718865977644
C        12.31153721976991   -3.79321514632590   -1.72158036920476
H        12.22541453421783   -4.26516018513957   -2.68915714179233
C        12.80403903858490   -4.50898956226737   -0.64221181224977
H        13.10313621784309   -5.53936622580490   -0.76355224827439
C        12.90917712759432   -3.89418910828500    0.59347527156147
H        13.29058638115404   -4.44600364975973    1.44021975033293
C        12.53015059111977   -2.57442273829456    0.75965749752747
H        12.61504563137406   -2.10175588181586    1.72381520004937
Ru       11.84994791465885    1.21689915964904    3.67267077243438
C        11.01381716355381    2.70693409284157    1.22185910911319
C        10.42817679508201    3.94552703883366    0.62686324936530
C        11.61841559002059    0.29063831748724    0.88666127809712
C        11.20877266879183    5.06029072617873    0.35718958191304
H        12.27400718457127    5.02410420739815    0.53394687904787
C        11.12618718009180    1.55695443863726    0.42758106397416
C         9.05354555957464    3.98650798407464    0.42061053809431
H         8.46076705764709    3.11666194990954    0.66095954589536
C         8.47287335708290    5.13958568959493   -0.07665415026751
H         7.40531401943440    5.17794568204672   -0.23681523100753
C        10.62064032579489    6.20622000955326   -0.15110703938993
H        11.22991093854458    7.07031053003348   -0.37192624104723
C         9.25419086505110    6.24607496371772   -0.36909202504030
H         8.79687381393951    7.14230243546071   -0.76163522602700
C        10.35748501462198    2.30318034327037   -1.98370705855756
H        10.41580443215805    1.83570269762357   -2.96293779285475
H        10.93935539871344    3.22264146468899   -1.98130463589564
H         9.32219823305823    2.55944139391365   -1.76914296544496
C        10.87357916816564    1.34844094645313   -0.97041000051424
N        11.63767024754253   -0.52147774896833   -0.21048297368720
N        11.18515735744249    0.13540262658982   -1.31675834389224
O        11.99336897610128   -0.08106794741344    2.03693654797474
C        11.94570246672820    0.78094806545225    5.91546019049602
H        11.17248271425159    0.42180466556618    6.58320544609633
C        12.80837125162988   -0.13883946403783    5.28524604644495
C        13.12265834900604    2.67912538657413    4.90700301214644
C        12.10447535513325    2.17389996523387    5.74387213254044
H        11.47406181755250    2.85953012793343    6.29875571279546
C        12.66342404772753   -1.62789068611889    5.49612679314347
H        13.48293064729829   -2.12706025518999    4.96492737013264
C        13.29339654241643    4.15808005984278    4.72736397716935
H        13.09682693003454    4.68555463696729    5.65895829866370
H        12.58164942612889    4.51625563149161    3.98105314249287
H        14.29762737501686    4.39794974472452    4.38453937785091
C        13.83350107776725    0.38386717595435    4.45502486002595
H        14.54409877816453   -0.30094718914849    4.00072919865630
C        14.00782512207666    1.76542338440691    4.28141039258261
H        14.84894492376167    2.13837209053816    3.70799810978560
N         9.94427223918239    0.86043550444359    3.56933141835861
N         9.29173195630624    0.53453638753866    4.65114029686857
N         9.21227575829536    0.91008267377928    2.50042375081912
C         8.02134257003990    0.35199978469813    4.27612931866625
C         7.96565373864426    0.59493889461980    2.88767807993385
C         6.84597023550615    0.47604126414106    1.95361260138713
C         6.06630416194371    1.13661157112755   -0.16955257601506
H         5.65606677325881    0.12225140868387   -0.21273348744407
H         6.58559463152777    1.36695048691239   -1.10272317930865
O         7.07229126095648    1.18697879595134    0.83866332963988
O         5.85401614278580   -0.18676587161829    2.13912172576048
C         6.93555876394046   -0.03786075788099    5.19136253356522
O         5.83148518540426    0.65543535830373    4.91328285128131
O         7.03035368126963   -0.86643583235420    6.06213949492724
O        11.37190388686561    2.80467055198574    2.42416121094892
C        11.33762968110608   -2.11200336266543    4.90134794973347
H        10.49274398124962   -1.69311996319939    5.44265831106903
H        11.27732487891504   -3.19653678893502    4.94846279408371
H        11.26138349226515   -1.80238553135784    3.85835890729213
C        12.76271304024999   -1.98831024686131    6.98050973012174
H        13.68593206640899   -1.60425328387351    7.41052313632658
H        12.75119207850429   -3.06892810940991    7.09712623003520
H        11.92272235021984   -1.57953142628237    7.53541323542455
C         4.62036128842247    0.27397690201845    5.56494012609693
H         4.75742307963107   -0.72239841156037    5.99851972439321
H         4.42796790242199    0.98848434052210    6.37352450450875
C         4.95421539179629    2.13934949495289    0.10722674594119
H         4.45077400275276    1.88242378457403    1.03606228318847
H         4.23174903280680    2.11907907240429   -0.70385760336664
H         5.36494159846675    3.14253675724120    0.19558235909843
C         3.50059131456576    0.28309271473000    4.53763749895505
H         3.30537097217279    1.29859884962602    4.20293555973809
H         2.59503188511962   -0.13114314468674    4.97165784905245
H         3.80004382050041   -0.31143315719828    3.67831258474457

