30
CSD_code = HUNWET | q = 0 | S = 0 | Stoichiometry = C12H13Cl2NPdSe | MND = 4
Pd        5.78233576735706   15.40457067355341    9.33156782159307
Se        4.56924768137474   14.06430411728295   10.98067038406630
Cl        7.34677294465017   16.16991225508455    7.90750884117221
Cl        7.27102211316480   13.99906056284734   10.25611977675221
N         2.68730153993432   16.04734716851546    9.56478632193576
C         3.11729452542292   15.63407561042721    8.34381542097942
H         2.59757498985924   14.86513674812738    7.80120787376691
C         4.20222402299998   16.40456877162532    7.96505498125693
H         4.65132937135301   16.44487289430094    6.98357966282267
C         4.44232233681707   17.32418711649994    9.04121944135141
H         5.11852850750883   18.16771089372743    9.01891152808130
C         3.48047325683925   17.06413885945035    9.99998336100486
H         3.29320200346059   17.55905887350567   10.93490910251965
C         1.85089214005685   15.25059053563086   10.42398924046818
H         1.07262839436786   15.87554916379061   10.87537633237975
H         1.37293489439434   14.48370309891803    9.81026007226269
C         2.69645929031093   14.60127283342255   11.52392504867863
H         2.18636789181708   13.73347012251648   11.94005106114042
H         2.88126465471870   15.31114030110640   12.33489010907847
C         4.09749769701655   12.64936773503004    9.74930050438357
C         3.23301463372776   11.64519356679870   10.16700990435310
H         2.83978863366674   11.65368394333274   11.17382130551886
C         2.88587062423192   10.62857574334056    9.29552796812326
H         2.20833757592809    9.85324049556925    9.62111041423762
C         3.41488490223134   10.59853270445569    8.01562535810460
H         3.14533049407137    9.80223959489651    7.33865723246176
C         4.29872602675348   11.58504317965580    7.60988079117839
H         4.72447999491652   11.55864149484128    6.61819328113215
C         4.64289429833118   12.61343240082395    8.47051357207046
H         5.35519879272559   13.38217854090709    8.13703328712977

