45
CSD_code = HUNWOD | q = 1 | S = 0 | Stoichiometry = C18H23ClNRuS(1+) | MND = 9
C         3.03814491265741    4.05877829995387    7.93912912364167
H         2.17270048712642    4.05063929752215    7.28666046036927
C         3.98481025960872    3.03112841663937    7.86819008864921
H         3.86388345597104    2.23181217918281    7.14666313618609
C         5.06660577485082    2.99008304540983    8.77970626228478
H         5.75526689742126    2.15333750634503    8.76299610737894
C         5.18701944798317    3.99246461114245    9.75660488111436
H         5.96263407197854    3.91550217563161   10.51292532394848
C         4.22287177636169    5.02537025347302    9.84860431643653
H         4.25926957070649    5.73292696019237   10.66768179407052
C         3.16621363221413    5.06519167575798    8.92874676823105
H         2.38774885596482    5.81256288158810    9.03420325472461
C         3.32433791151667    7.85486905516684    7.08488152290429
C         3.59190827051184    8.26711993836413    8.38250184189644
H         4.49016951675364    7.93369951501095    8.88472678400179
C         2.69167146776902    9.09166400591146    9.03351946601757
H         2.89743739685287    9.41882710719579   10.04107070314506
C         1.52732956973938    9.49189514070574    8.39518817430865
H         0.82788572474593   10.13301152918757    8.90804611354415
C         1.26022543522044    9.06687628640149    7.10398908566413
H         0.35365805561108    9.37514370593257    6.60785636823069
C         2.15925118059694    8.24705316713970    6.44207697251976
H         1.96672607355689    7.91238875492169    5.43512028166524
C         8.07501886005770    5.03621472282804    7.76963011079706
H         8.19131460641969    4.53719683368427    6.80884593122396
H         7.78922209587168    4.29168564479308    8.51831162206370
C         9.32873970540166    5.78431581572581    8.23262331509237
H         9.90919774569915    6.13529292469044    7.38143240412480
H         9.97110925086971    5.13515439622691    8.82198018874863
C         8.77883967299080    6.95834752430465    9.05871125292991
H         9.06576452549461    6.88710314598144   10.10522671887972
H         9.14612627267814    7.91271651293787    8.68539360045213
C         7.24976521905380    6.85327800185223    8.91234920582094
H         6.83323353991807    6.32382201048790    9.77231900592674
H         6.77977003174744    7.83291197643870    8.84081907539705
C         7.17745587461495    6.87862559246520    6.48475086759235
H         7.27738818131735    6.19597894830670    5.63485562154609
H         8.08518066646444    7.48300223383818    6.57036642498572
C         5.99159825695755    7.79368859863465    6.22782834781285
H         6.09009876905700    8.26953519483397    5.25235095830637
H         5.86134333829173    8.56087232175267    6.98962021601540
Cl        5.87240785906281    4.10921684044912    5.63765525745625
N         6.99760589446647    6.04824473014069    7.70006051161359
Ru        5.09814905129132    5.02339077390514    7.64598494932400
S         4.44790083655615    6.78915974694564    6.17969558295731

