73
CSD_code = HUNYOF | q = 0 | S = 0 | Stoichiometry = C36H26FeN8O2 | MND = 6
C         1.93174024275069    3.74817640980937    4.06433766882328
H         1.08472447374456    3.97769687445134    4.69511887961964
C        -0.48192455633921    1.18263188138340    1.51875026593945
H         0.39546707806993    0.68787239063599    1.12709628633088
C         2.86908545111767    4.71734547417720    3.75899562126728
H         2.75757764949132    5.71800131002454    4.14286457381438
C        -1.56092487588466    1.46110823010216    0.70061825619627
H        -1.53236326694487    1.19297935329945   -0.34264295516600
C         3.95811654369771    4.36267166124246    2.96861982772978
H         4.72290121252192    5.08673083373704    2.73222948109002
C        -2.67923547157355    2.07129058563049    1.26057830498703
H        -3.54983583663392    2.27947539396679    0.65746007604643
C         4.04949563556473    3.06935035871035    2.50088077537178
H         4.89090634629106    2.74772312934856    1.90879766878601
C        -2.66096365504406    2.39633109905531    2.59990654830696
H        -3.51686563251676    2.84498400938230    3.07753318992244
C         3.04604858245467    2.14805290627560    2.82386404796436
C        -1.52086721943356    2.11306768519310    3.36144975576330
C         3.02400888909560    0.76645747881129    2.43950296956000
C        -1.37066139878290    2.36111926283683    4.76600837421395
C         0.78792516732888   -1.58068272909442    3.53986825196362
C         1.24979331811874    1.32752781247293    6.71134989978890
C         0.44056034148826   -3.01203863511744    3.46693499454217
C         1.76264502548696    1.30534588212826    8.09383923393569
C         3.97276460036046    0.14619567290009    1.50939616694661
C        -2.33407962315398    3.10000320453612    5.58816207348641
C         4.53213477031828   -1.09800623172966    1.79600030705489
H         4.27526416927276   -1.58826755048802    2.72127442702639
C        -2.86505241485929    4.31094932364153    5.14292150508073
H        -2.55612912369451    4.71138123775657    4.18769350042002
C         5.40758691680650   -1.69161894417151    0.90675182015923
H         5.83903458267336   -2.65381470351964    1.14107968293231
C        -3.75523346894134    5.01624389632657    5.93076208403215
H        -4.15792813077180    5.95426487707064    5.57641387445133
C         5.73528904566919   -1.05815415942012   -0.28086560947847
H         6.42045132410198   -1.52330648395802   -0.97406094330028
C        -4.12433280865042    4.52901677172251    7.17382900405754
H        -4.82033558867223    5.08215045070874    7.78698117332410
C         5.17330794508293    0.17200473236725   -0.58042046813333
H         5.41443544120345    0.66415493492514   -1.51168840221843
C        -3.59021379915408    3.33471092935675    7.62929666808649
H        -3.87109230977353    2.95456238478790    8.60062000928141
C         4.29626661787010    0.77069124659995    0.30440623123940
H         3.83610870306138    1.71532928903996    0.05114080246865
C        -2.70031753386062    2.62446997463575    6.84622272227707
H        -2.28298813483931    1.69448016074457    7.19757176127086
C        -0.61417146173430   -3.51647759274304    4.22390243392990
H        -1.17815451050583   -2.85533098518453    4.86275900244435
C         2.95620516793713    0.65047681795329    8.38794433578550
H         3.50579988369238    0.16061796113949    7.59970654885110
C        -0.90129916008383   -4.86793492756733    4.13033439996025
H        -1.70981766400308   -5.30872234976534    4.69938166515564
C         3.39756603881207    0.64904320476349    9.70050515881149
H         4.31815156094601    0.15315373480334    9.98056883772044
C         0.77442808395951   -5.22163576603818    2.64116853761801
H         1.29531289558273   -5.94538707398071    2.02741992371110
C         1.61166205526944    1.85875576066610   10.40612539566155
H         1.11530857778535    2.32332313927157   11.24852445415402
C         1.15388247475821   -3.89008315922452    2.65316797886053
H         1.97367725709604   -3.52216941236002    2.05863246313486
C         1.07212877439371    1.92651817182646    9.13274976954213
H         0.14673256497083    2.43926043381364    8.92873033378685
Fe        0.88975073308787    1.01215802158479    4.10008913597619
N         2.00566231724209    2.50032293308864    3.62159995890134
N        -0.44933063592750    1.48942319947380    2.80850318842540
N         2.03359641177731    0.12665412324016    3.02381653443198
N        -0.24881039444588    1.84631502460203    5.22208054569556
N         1.83153477928846   -1.17791528570223    2.83365041171575
N         0.09099830759743    1.93277191895233    6.50891728660478
N        -0.22707139569190   -5.70446019164692    3.35909893808109
N         2.74546760609407    1.23757270481173   10.68922891153310
O         0.10315351636718   -0.79082013875103    4.25609454494370
O         1.90744099161553    0.78271006067710    5.77514891730207

