52
CSD_code = HUNZOH | q = 0 | S = 0 | Stoichiometry = C21H23I3N4Pt | MND = 6
Pt        3.92550453025999    3.81019722495045    7.62918567123057
I         4.54556929235884    6.43790719950950    7.69591926070839
I         3.39811778721985    1.19887186382403    7.22054470468056
I         4.27608494719996    3.46499164014820   10.23397927950532
N         3.86414191050035    3.96800171090615    5.62808109357992
N         2.70049981640341    3.89591345900050    5.09857672815736
C         3.65647102696673    3.55643816356728    2.95016341953233
N         6.08565138105237    3.46892309832731    6.97681150644105
C         1.92498294801015    4.27313287695829    8.00620814815296
H         1.49774739062874    4.63444099483955    7.06932005548352
H         1.85148428172459    5.04651685345670    8.77076121593294
H         1.39409383479553    3.38435631223573    8.34754313730158
C         2.54090368730401    3.70751530877881    3.79942988029344
C         4.92641104479709    3.65666072201504    3.53282661324412
C         4.99750147682861    3.89495886214986    4.92059927638844
C         6.22218185017592    3.97099396466671    5.73890848351762
C         7.12349197375471    3.42580646547793    7.79360356741754
H         6.95146591834621    2.98656190524458    8.76803657408042
C         8.36749772313474    3.92678523071226    7.44328135489642
H         9.18797397111323    3.87264656808537    8.13927212106442
C         8.50176354380527    4.53274509971525    6.20658884356859
H         9.43275202922641    4.99432603353976    5.91522884452112
C         7.42143345360778    4.55063764970228    5.33792965203325
H         7.50269652840392    5.05406630591570    4.39140712309121
C         6.17377886630660    3.41323240904703    2.73673379068430
H         6.00018108850764    2.59376913689035    2.03743632665104
H         6.96374165969800    3.08674683383252    3.41599031700942
C         6.67965421387930    4.63196124364052    1.94364567696195
H         6.67092156709837    5.52073442526867    2.57922923775546
H         7.71803956784628    4.42824262766793    1.67070429933248
C         5.90770330554705    4.96308020203377    0.66699393769233
H         6.50580484714575    5.69534492626322    0.12058167688629
H         5.83624767631339    4.07722556828297    0.03378737705626
C         4.51108945085604    5.54834232510289    0.91489657981135
H         4.45316555603521    5.93803449007326    1.93374615164533
H         4.35227839397416    6.39579310065906    0.24557247490455
C         3.37104137293419    4.56320918645668    0.67516978749351
H         3.34869565325762    4.28473725102881   -0.37986685199695
H         2.42463867711998    5.04685999949187    0.91787789963969
C         3.46875783824064    3.27052782205742    1.49998883181998
H         2.53758869984841    2.72083086277932    1.36195932154114
H         4.28740672056739    2.65871274494455    1.12364194621800
C         1.12855135937755    3.58670828050246    3.40317328642096
N         0.76778471508891    3.98366153086932    2.18677103653422
C        -0.50280589081536    3.89498643107960    1.84492029327254
H        -0.73593429997663    4.23671279368661    0.84501227053741
C        -1.48941033725941    3.40497599431564    2.68872770636459
H        -2.51616470312036    3.35701652401733    2.36269575236648
C        -1.11533380537615    2.97969266043068    3.95414445491928
H        -1.84672362284872    2.58314868810850    4.64231025424763
C         0.21478399991900    3.07030016494334    4.32391591386098
H         0.55319508221727    2.73861626279797    5.29163369554570

