106
CSD_code = HUPBUP | q = 0 | S = 0 | Stoichiometry = C54H45AgAs3NO2 | MND = 5
Ag        4.44902586131114    2.59727101973774    3.32075889289645
N         6.33792398050818    4.53675429960441    2.40846566396608
O         6.03903644876119    3.53556170219604    1.72060396799252
O         5.95860910886293    4.50727961961849    3.60013049049125
As        3.88620992637851    0.28771928165376    4.31097505245173
As        3.17869789796521    4.56838813174509    4.82572349057771
As        3.20383795372124    3.00850147524882    0.83823886336424
C         4.27280879778204    0.07361199797776    6.20235845534870
C         4.29911870831999    1.22684169626330    6.97828563341466
C         4.55312138001384    1.15762652845523    8.33574455659853
C         4.79430442596816   -0.07239028694463    8.92653430826430
C         4.78180024044469   -1.22587103661474    8.15888681568981
C         4.52164380096329   -1.15469181956319    6.80123687394466
C         4.50865303474012   -1.41198383400039    3.58927421191648
C         5.82887863233603   -1.47353973297368    3.15387068723020
C         6.33845840728239   -2.64370493005772    2.62121291586781
C         5.52626336405405   -3.76131955114667    2.51065716722376
C         4.20819021110861   -3.70492373058092    2.93232262819151
C         3.69993552447220   -2.53436840264966    3.46920342628914
C         1.96284611661357   -0.00833580509153    4.29332815977679
C         1.28652419387588    0.24451695538502    3.10449401891815
C        -0.08513586348746    0.09393946594484    3.02611780343792
C        -0.79756677566210   -0.30663332017853    4.14492601013904
C        -0.13431214690161   -0.55825061927641    5.33436873892128
C         1.24000402876128   -0.40895534149200    5.40942412033072
C         3.35368824234799    6.35465790050995    4.09155404797001
C         3.34404954967438    6.48456944077876    2.70933562500087
C         3.46620887439498    7.72632229107859    2.11383412092075
C         3.59859747711444    8.85617663267250    2.90445912789388
C         3.60982577983036    8.73763687967665    4.28461958058838
C         3.48782155119741    7.49257193265883    4.87689184873635
C         3.82320250545769    4.87844266193079    6.63808917741876
C         5.18750987585975    5.11795762653941    6.78563634498767
C         5.73321614163671    5.29979507998787    8.04312768728741
C         4.92449710520730    5.23210685012586    9.16752669975403
C         3.56987819273669    4.98142853084051    9.02903102759243
C         3.02014637198494    4.80312974929088    7.76977020144158
C         1.25050949716947    4.53317001132037    5.17827218362497
C         0.69784685218498    3.30154413536792    5.51483487538705
C        -0.66107960538404    3.16555413658440    5.72495433967244
C        -1.48980207173847    4.26799840714316    5.58847500080705
C        -0.95244614277819    5.49725921064390    5.24440562045653
C         0.41070940039413    5.62911094066782    5.03856939441355
C         3.43698587393175    4.49840648197353   -0.39493784240673
C         4.70225104906881    4.71193643070335   -0.93234277387615
C         4.93324417617871    5.78579896509109   -1.77221071745897
C         3.90445048185654    6.66296668979040   -2.07748548745536
C         2.64615592384940    6.46519866446798   -1.53462184871960
C         2.41315305778759    5.38992012616569   -0.69355578036586
C         3.74667692140424    1.54766357480225   -0.32510725330530
C         4.21354342819437    0.38181221308384    0.26761644232040
C         4.59150330965254   -0.70657812095707   -0.49763322877542
C         4.50910078275123   -0.63456441863567   -1.87825879184986
C         4.05452089775664    0.52606714997791   -2.48351549845759
C         3.67490224535984    1.61074314124487   -1.71233403570160
C         1.25214610944730    2.84468733801790    0.71787426801611
C         0.52143404449107    3.47383976075194    1.72068551455725
C        -0.85940730341542    3.41529443960666    1.74044253975096
C        -1.52855943378431    2.71284243757016    0.75085414192743
C        -0.81123508768832    2.07256079249747   -0.24644160874689
C         0.57217672223780    2.13685329366515   -0.26243846042654
H         4.12598184183026    2.19321221600273    6.50422339498309
H         4.56918381376222    2.06277237127044    8.92554768763551
H         4.99875426756939   -0.13278841895145    9.98539010520239
H         4.97648272104379   -2.18407589485749    8.61957246933013
H         4.51587151202490   -2.05801609187277    6.19960942808208
H         6.45209544270821   -0.58502457752357    3.22797596681858
H         7.36462187495315   -2.68419168068653    2.28556497668484
H         5.91924122165546   -4.67545828699066    2.09025056175520
H         3.57348810886670   -4.57501885613118    2.84114777791111
H         2.66549895874773   -2.48906713597064    3.79378942147887
H         1.84996773699793    0.56779104460712    2.23001311995051
H        -0.59715749720050    0.29608048889271    2.09704885048632
H        -1.87037752864524   -0.41974883499157    4.08981225772084
H        -0.68853808737584   -0.87098146792856    6.20842742991337
H         1.75502605776629   -0.59743047949341    6.34528536741543
H         3.26288923954271    5.58742745635335    2.09582001030390
H         3.46688715877787    7.80812664679731    1.03623392793623
H         3.70009883839486    9.82906147970478    2.44576413741052
H         3.71815314287834    9.61880836696592    4.90163570061382
H         3.50525873751596    7.40146681385018    5.95820961221644
H         5.80730002283009    5.15282715337610    5.89655160622209
H         6.79134026706719    5.49053522620287    8.15060100683907
H         5.35017879239746    5.37147341211739   10.15103378637709
H         2.93741053633963    4.92458381754247    9.90434880516409
H         1.95866962121773    4.60355762738257    7.66712465046411
H         1.35522877877225    2.43835835362214    5.60695283109135
H        -1.07481346170583    2.20165353833674    5.98497548629163
H        -2.55420238719517    4.16745603626154    5.74509504952593
H        -1.59901544506925    6.35660187180104    5.13347770120756
H         0.82707797753575    6.59170085401573    4.76289600210177
H         5.50488623045646    4.03441668102988   -0.66510127161658
H         5.91862373506185    5.94465516591963   -2.18578462169311
H         4.08436450687867    7.50343514198789   -2.73233878431206
H         1.84267756284016    7.15150022016228   -1.76422625692332
H         1.42707024242733    5.24468639293658   -0.26337716228441
H         4.29644689546263    0.33779052872120    1.35431045863159
H         4.95280886548611   -1.60540746519238   -0.01731653055425
H         4.80521590761683   -1.47896113978575   -2.48353600347942
H         3.99701488614274    0.58533224942452   -3.56141667585426
H         3.32918376547399    2.52153208626367   -2.19079289907827
H         1.05745293907876    4.01327695334213    2.50201282500173
H        -1.40945864858253    3.90885147817698    2.52887814076204
H        -2.60764573591884    2.65889030462709    0.76012818303460
H        -1.33252424565117    1.51862069216839   -1.01489648712711
H         1.12698077513117    1.62756251958721   -1.04174147985898

