125
CSD_code = HUPDOL | q = 0 | S = 0 | Stoichiometry = C60H40F20N4Ni | MND = 4
Ni       10.68641100950613    4.12392029657351    6.80475734650194
F         5.92538404022511    5.68361750100157    4.79989390736148
F         3.96008526087887    5.76086907724992    2.92944681953938
F         4.18948952001687    4.27857605480778    0.65319137986117
F         6.40383281690594    2.74104069433753    0.24884506300914
F         8.38629378087939    2.70727936991595    2.10220859576708
F        12.68005491646746    2.55801273157742    2.04780820155659
F        14.54382300578442    2.47253244601695    0.07644332680867
F        16.82446354073124    3.94925613971695    0.29569625360302
F        17.24033838165440    5.48948028171758    2.50608836220203
F        15.39363722536626    5.53134149599401    4.49482220543385
N        10.64272856806853    4.32063787481306    4.91277169254307
N         8.79404106532145    3.92655878737229    6.84847100577560
C        11.72116542181411    4.62825446513620    4.13382439651808
C        11.29609294338259    5.40691955012939    2.99204447718992
C         9.93019635424578    5.44194711682931    3.03330908145791
C         9.53568879431338    4.67610359657139    4.19489989740626
C         8.27409527352814    4.16358940062123    4.50894277781085
C         8.01565282725486    3.61764014382848    5.76994716310855
C         6.87486172895572    2.83758298403704    6.19510780588832
C         6.91631625860818    2.80236972874041    7.56100125075370
C         8.07685927336658    3.56971438678114    7.95555597528485
C        12.98177472775973    4.08118043463225    4.39202952423125
C        12.18131292706340    6.17913478641190    2.06959678527909
H        11.58835779699136    6.56555912678888    1.24002884007134
H        12.95962517365078    5.54925058971683    1.63969007449869
C        12.82534911794654    7.35514309769566    2.80908412874043
H        12.05835668192685    8.03601749542708    3.16984363810727
H        13.48697133377233    7.90263743156797    2.14231433289463
H        13.39873820355556    7.01203539672464    3.66602567002222
C         9.03118889387024    6.26634179367020    2.17135390143705
H         8.21123940799041    5.67542096851393    1.76389736069958
H         9.59891117810636    6.65277672211593    1.32442759772262
C         8.46548188637026    7.44603147414172    2.96687666702925
H         7.91903591603444    7.10332403289833    3.84135553490934
H         7.79536940401329    8.03350518688607    2.34402684749306
H         9.27290876052345    8.08954679183806    3.30751944476674
C         7.20177625940047    4.19347607167918    3.49527140833722
C         6.05521250780592    4.96415605109162    3.68319133720448
C         5.04187408821294    5.00640934447599    2.73142659651637
C         5.15831106108094    4.25120761959343    1.56738977940933
C         6.29077688773995    3.46748482731665    1.36165639210984
C         7.30043314080138    3.45282191584328    2.31808533436746
C         5.95324213824673    2.06391062213933    5.31034211275671
H         5.52535883534508    2.69195969562161    4.52947504553101
H         5.12228902098924    1.67984217060645    5.90290210295413
C         6.69298432419186    0.88548820440098    4.67098709025884
H         7.55038808202911    1.22647936484744    4.09694608802362
H         6.02656773415050    0.33575271536059    4.01086444473801
H         7.05316833932954    0.20723489560254    5.44061979230511
C         6.05572502110334    1.97649875320123    8.45992403245418
H         5.20871825268127    1.58973397865445    7.89253949016528
H         5.64838470626013    2.56637122231983    9.28067813694301
C         6.85262113765488    0.79697807684510    9.02407926731209
H         7.19463291137785    0.15524438068871    8.21578012080673
H         6.23025388262586    0.20754870871610    9.69290300332447
H         7.72639760259436    1.13994719330821    9.57150460293311
C        13.99284744723094    4.04686609340117    3.31739483857958
C        13.79907700740683    3.27470012290815    2.17275763475696
C        14.74733703976109    3.22824428356245    1.15634711014558
C        15.91367388626971    3.98064669844308    1.26762563094593
C        16.12528730167574    4.76575310203685    2.39805357182064
C        15.17226943221476    4.78457626154818    3.41088124292453
N        10.73009349077040    4.32064280314901    8.69673489815714
C         9.65165808265683    4.62825587457251    9.47568156581963
C        10.07673037301263    5.40691849060292   10.61746518477699
C        11.44262513926094    5.44194483345840   10.57619977392120
C        11.83713237016272    4.67610349567698    9.41460531296557
C        13.09872263870762    4.16358756707893    9.10056595578942
C        13.35716796761735    3.61763947611704    7.83956236758085
N        12.57878131718214    3.92655797837158    6.76104065178865
C        13.29596271185664    3.56971260084379    5.65395416411619
C        14.45650717314419    2.80236954677411    6.04850756780013
C        14.49795645177038    2.83757993458787    7.41440107136072
C        15.41957353864315    2.06390613564257    8.29916515866879
H        15.84745666599324    2.69195224963164    9.08003357717862
H        16.25052740779174    1.67983624094374    7.70660742255825
C        14.67984167039166    0.88548224471044    8.93852417309068
H        13.82243605140984    1.22647752049048    9.51255835518973
H        15.34625520302401    0.33574394934051    9.59865069175812
H        14.31965895322929    0.20723355251756    8.16888673259726
C        15.31710248276064    1.97650172899902    5.14958275087398
H        16.16410984301374    1.58973977237175    5.71696896370747
H        15.72444132391958    2.56637777003980    4.32882893794746
C        14.52019979255097    0.79697947891172    4.58543421890626
H        14.17819069848623    0.15523856803699    5.39372916083248
H        15.14257030301690    0.20755575734278    3.91661082095103
H        13.64642219277475    1.13994192050228    4.03800535209220
C        14.17103812108171    4.19347001410109   10.11423836625530
C        15.31760309394299    4.96414767940783    9.92632061892245
F        15.44743499608256    5.68360850557216    8.80961761463930
C        16.33094149897082    5.00639966891559   10.87808619224134
F        17.41273354794313    5.76085711337935   10.68006692061629
C        16.21450257978078    4.25119795834555   12.04212334098882
F        17.18332415418212    4.27856582137902   12.95632412906460
C        15.08203493918372    3.46747694493222   12.24785479925957
F        14.96897734561374    2.74103327677504   13.36066748833703
C        14.07237953364510    3.45281580093116   11.29142380470387
F        12.98651884053115    2.70727395777353   11.50729926541557
C        12.34163393764362    6.26633479198480   11.43815605334628
H        13.16158248048781    5.67541088844188   11.84561138594834
H        11.77391202828670    6.65276931095227   12.28508321914154
C        12.90733896841945    7.44602737114750   10.64263541886034
H        13.45378513357340    7.10332034330279    9.76815704330564
H        13.57745285019244    8.03349994741452   11.26548531374408
H        12.09991332341510    8.08954491595828   10.30199207412646
C         9.19150839027576    6.17913309231981   11.53991144847681
H         9.78446348824981    6.56555849122033   12.36947878454765
H         8.41319613122955    5.54924778535854   11.96981887666435
C         8.54747616849399    7.35514318817787   10.80041838841085
H         9.31446574654093    8.03601936517400   10.43965574191577
H         7.88585518675591    7.90263773864449   11.46718809316693
H         7.97408356447585    7.01203547971910    9.94347952327155
C         8.39104976864134    4.08118140858686    9.21748018546592
C         7.37997732416162    4.04686734891030   10.29211316372901
C         7.57374690262747    3.27470503538768   11.43675266090785
F         8.69276872914463    2.55801971054930   11.56170572264092
C         6.62548524050631    3.22824999829623   12.45316211424494
F         6.82899882165234    2.47254138569940   13.53306841563038
C         5.45914658445378    3.98064915673912   12.34187962711645
F         4.54835441031790    3.94925919076909   13.31380776998092
C         5.24753361755692    4.76575191390044   11.21144859915126
F         4.13247915734476    5.48947451139561   11.10340836589056
C         6.20055386559576    4.78457460001676   10.19862294316901
F         5.97918422081387    5.53133497070142    9.11467815535990

