52
CSD_code = HUPDAX | q = 0 | S = 0 | Stoichiometry = C19H20CdN4O6S2 | MND = 8
Cd       -0.47576028860561    7.29788434400451   10.97610645185942
S         2.16598638042706    7.56703903380554   12.61925556425348
S        -0.09417833666057    4.41670707104540    9.96395294569920
O        -1.74686054832198    8.88889070405280   10.17646152477253
O        -0.98958817334492    8.92290026063323   12.16515967799165
O        -1.14665867875018   10.72000564839901   11.05690611511324
O        -2.18921838318889    6.12512818840868   11.19507465780021
O        -2.35590581753452    4.88944919552455   12.90997485657958
O        -0.56509245064602    5.97287666528087   12.56200645731209
N         1.08934529077736    8.88629117906232   10.18948168379435
N        -0.21868330692203    7.07082552576050    8.67062996122789
N        -1.29900504903470    9.52584477165566   11.12845327010872
N        -1.71876883022163    5.65217264451094   12.24496199079938
C         2.00137995960211    9.36294690389122   12.37369192912290
H         1.15132057071118    9.63529040931776   13.00682069499162
H         2.89685183035580    9.86403355739635   12.74422383597602
C         1.70518541668601    9.75511709697176   10.96382537470847
C         2.06697996208272   11.03448751316069   10.50209348539271
H         2.55631206627428   11.72130746489828   11.17455360634987
C         1.76151737513609   11.39624030777801    9.21763597319603
H         2.00667512094728   12.37919687503396    8.84326738703415
C         1.11110108802052   10.47639141828944    8.37512641017286
C         0.79057990087968    9.21755873292357    8.92301518105188
C         0.09938470527113    8.25207376991666    8.11693969353154
C        -0.23163406518745    8.57825037832336    6.78496836299895
C         0.11543487934389    9.85497675426261    6.26282021351764
H        -0.15890502575713   10.08008367203398    5.24285923826895
C         0.75846842328369   10.76946861997345    7.02897657066713
H         1.00897450181253   11.74412620739389    6.63753371723516
C        -0.91611443998336    7.60322806954749    6.03729056830993
H        -1.19508328292010    7.81478220722802    5.01519997491072
C        -1.22142553651061    6.40081898685009    6.61770212019830
H        -1.74779868916608    5.63498673785693    6.06921621714306
C        -0.86141489639328    6.16952613361560    7.95862251690415
C        -1.21521542469906    4.87030538885038    8.60738383831683
H        -1.24698833768214    4.05722080398127    7.88014169589670
H        -2.19333494551651    4.96684310935102    9.08750708514777
C         1.44325593410442    4.18351847710865    8.98752050153188
H         1.25974178478072    3.37150462111368    8.28208763992781
H         1.63081273018222    5.10416951367405    8.43558236453317
C         2.61149245143478    3.83385726589701    9.89807679550900
H         3.50146217628816    3.70441218238270    9.27524875960202
H         2.39869880309749    2.88021421843229   10.38385546209062
C         2.88882008382687    4.87598783881449   10.98122366499822
H         2.00281365994557    4.98836902435569   11.61101817333443
H         3.69909130282789    4.50528023214747   11.61277578028364
C         3.28230124764647    6.24403928272282   10.42769559218328
H         4.15355987090530    6.14188014927293    9.77294512500283
H         2.45841865674325    6.66334436815169    9.84417132760783
C         3.62304605977885    7.21398109642874   11.54879459170315
H         3.97508977356833    8.16530263574188   11.15440018413782
H         4.38743250030412    6.78996274276642   12.19986318919989

