98
CSD_code = HUPDUR | q = 0 | S = 0 | Stoichiometry = C50H30F12N4OZn | MND = 5
Zn        1.67573891067930    4.77452574935596    4.41119130880352
F        -3.42280434748530    6.91936268049319    2.90288804222067
F        -2.95765412303277    8.87992927621334    3.68311720925437
F        -2.80175948181056    8.50322268829478    1.60094196313670
F        -1.18807324166865    7.50802945853756    0.06002404106457
F        -0.46599985179040    9.49136794116501    0.53088043035413
F         0.88502041547231    7.91731506030659   -0.03653305640263
F         5.38531533785970    1.00860110025610    2.89751611794801
F         6.05175767027615    0.00982193669140    4.68407180428258
F         4.29523981642432   -0.65785488422699    3.62649643815090
F         1.85788071072219   -1.11098267057917    5.74868706444607
F         2.77398956623498   -0.39786452598891    7.56982401375853
F         3.98699038117324   -1.16737884979333    6.01421431962690
O         0.93604428311181    3.54560639315463    2.74217934087487
N         0.69440531263251    6.49426738474843    3.84523294579523
N         3.32280244087154    5.43763090720198    3.49528097211642
N         2.71381129116749    3.15091894949511    5.12818805436881
N         0.23230948114084    4.40355602618108    5.70614389478166
C        -0.61639244545464    6.74212439281431    4.07065142108018
C        -1.14492975795508    7.52294639745704    2.98656651426666
C        -0.09236110722872    7.74780830725259    2.11827780333598
C         1.06814827143304    7.17287209538076    2.73675603576927
C         2.41806192329174    7.43653296364038    2.42077146492425
C         3.46456605695772    6.65701779016187    2.91157993598044
C         4.86310243300445    6.98231823679144    2.80280813308062
C         5.54952762429696    5.91873739025792    3.27791358356152
C         4.57266028083219    4.93615803907820    3.67177135835945
C         4.86406225370563    3.63692340757610    4.08393318861191
C         3.88833948063840    2.75447764139408    4.58999784766632
C         4.06181915486851    1.34734648767061    4.81836227401744
C         3.02522671616441    0.95296039995857    5.64048186974246
C         2.18306492965630    2.10863720901678    5.81827873930685
C         1.01680071702856    2.23476807926037    6.58818600794821
C         0.17798696491610    3.35071144264981    6.56041240198868
C        -0.96293011185599    3.49412912280100    7.43227743170426
C        -1.58522399760118    4.63858642761800    7.07986506346727
C        -0.85159861715309    5.18418691602413    5.96432944142791
C        -1.29140281002735    6.27211091730361    5.21514064551658
C        -2.56281662135886    7.94937390958181    2.79405195521594
C        -0.20962591735617    8.18753244711589    0.69389141724733
C         4.96019580393592    0.43794147804618    4.04103175607843
C         2.90013739350604   -0.41404797794762    6.23173569859514
C         2.73774104455112    8.64788719532788    1.65603789196027
C         2.13309516845865    9.85838992245135    1.99552998955617
C         2.42829489442857   11.01131724829114    1.29324679399252
C         3.32520339059329   10.97351271405633    0.23913885353807
C         3.92883010024955    9.77547725067161   -0.10861890544362
C         3.64240770806884    8.62171629046516    0.59384490363492
C         6.27229109935553    3.21409861629311    4.11276272218056
C         7.10110662483182    3.34401809429562    2.99859607131329
C         8.42633770379860    2.96129576081744    3.06614480892701
C         8.94830376247116    2.45590849048497    4.24635405981182
C         8.13501585252068    2.32753934843139    5.35908440704834
C         6.80516434026424    2.69873433417209    5.29351513302056
C         0.56987569537297    1.16356006916881    7.51263885397370
C        -0.27281131334807    0.15616992405869    7.06016314337187
C        -0.73408398625737   -0.80902334928792    7.93759345484887
C        -0.37261596579007   -0.76547846977085    9.27266863577706
C         0.44938086526414    0.24995016929966    9.73219074329146
C         0.91535050332976    1.21497384643143    8.85914541685887
C        -2.49672518814213    6.96939622982431    5.71157040677768
C        -3.75208415321012    6.37055772448351    5.69597482363709
C        -4.84578434935180    7.03716849618723    6.21667582549110
C        -4.69381009984343    8.29402507156912    6.77784396751102
C        -3.44366196359446    8.88771125846257    6.81123954773826
C        -2.34964448577900    8.23242198005418    6.27779239889263
C         0.03110114075890    3.88797097579392    1.69461200784093
C         0.75092460952241    4.44430276917569    0.47635217424669
H         1.59789630651067    2.94936736363894    2.37021574769158
H         5.25623202353639    7.91189791349146    2.44235274293885
H         6.61120602179348    5.81105896232912    3.37605080753418
H        -1.23526829127043    2.80917219552059    8.21028697181249
H        -2.46126989761066    5.07461037642711    7.51645620085757
H         1.44501573682495    9.89455360203110    2.82798057816482
H         1.95161906881825   11.94001715373966    1.56747700972257
H         3.54849775898332   11.87310006552081   -0.31408190386743
H         4.61914670502675    9.73918515951422   -0.93813473602870
H         4.08253112927286    7.68172177400757    0.29690614222399
H         6.68571176963133    3.70645101593430    2.07037678272743
H         9.05430251721104    3.05103287023249    2.19229190875152
H         9.98442915087629    2.15732821336979    4.29591372748243
H         8.53354812777681    1.93128883192752    6.28038071570037
H         6.17450512803109    2.60886812671525    6.16638314988169
H        -0.55721898839959    0.12705596644966    6.01885209630085
H        -1.37801872245569   -1.59559977147771    7.57424831042341
H        -0.73191123719283   -1.52095104984656    9.95513848286786
H         0.72963030170624    0.29075610557747   10.77399569646121
H         1.55856416162537    2.00773146015151    9.21110770594304
H        -3.86820066605424    5.39363289874171    5.25087358348535
H        -5.81968524104092    6.57215056299909    6.18414232918376
H        -5.54910636438027    8.81077600182421    7.18639090104613
H        -3.31930747886356    9.86618835580683    7.24973646264530
H        -1.37279444848009    8.69295161237319    6.29843363253964
H        -0.55048419507138    2.99820204300635    1.42147585321143
H        -0.64904789216031    4.62873873852039    2.11675710761805
H         1.36337947147206    3.67590248290090    0.00761647108284
H         0.02754161553136    4.80180331621714   -0.25047507630233
H         1.39312023960473    5.27377754873819    0.76453557463233

