99
CSD_code = HUPFUV | q = 1 | S = 0 | Stoichiometry = C46H47IrN5(1+) | MND = 8
Ir       11.51148680334284    4.13722728774340    6.50008794978990
N        11.76071984709177    4.61938117682963    4.58087405729975
N        12.53137009259592    2.53771657864310    3.80545104335754
N        13.29328899480719    3.09966317732358    6.02035512460840
N        11.12955545770587    6.88225892087106    4.65770563402002
N        12.20102914552226    6.11467393413146    6.67253937288500
C        11.84889506366630    3.62900675166776    3.65277327884571
C        11.17374003370660    4.09561322742572    2.44473368005241
C        10.74745922554650    5.41354204899647    2.70363466764841
C        11.16915389053967    5.73063501255287    4.06587985282169
C        10.10291576757195    6.14717290182424    1.73086752296791
H         9.79083288688134    7.16008079682169    1.93169578302242
C         9.86105338870326    5.55865208712116    0.48983977677933
C        10.28721236617202    4.24585181134807    0.23142871158761
C        10.95565834652983    3.51552089197994    1.21348627089718
H        11.29656561692175    2.51087186481832    1.01806565876898
C        13.34408891761763    2.36023882508350    4.88349388647306
C        14.32750551784140    1.36441221401952    4.75453756658399
H        14.31627904908087    0.77249470712129    3.85448033411348
C        15.27219643753149    1.18208609737360    5.73293812272281
H        16.01688787499769    0.40761307627780    5.63398169818011
C        15.25851710931234    2.00360838826334    6.86932812956431
C        14.22640765049873    2.92804760376317    6.95304879470104
H        14.16348663201692    3.58126161067634    7.81225749683402
C        11.77530354580004    7.09503562202805    5.83641635873134
C        17.59533179406044    1.62379533251312    7.59620970434715
H        17.86591673930022    1.45911551413001    6.56392701179477
C        18.57695102062946    1.57579554630928    8.57364739192551
C        18.22218845131703    1.82900320862296    9.89348795042904
H        18.98304342624261    1.79520521285926   10.65965649028845
C        16.91227031792310    2.12151544038441   10.24763904984401
C        15.94477360022548    2.16506388441750    9.25477148194360
H        14.91891065421310    2.36347615327690    9.53015859813977
C        19.99751219265320    1.25678671383565    8.22759360809437
H        20.13031374594370    1.16775399333706    7.15283101043321
H        20.29388305571578    0.31732892891618    8.69246722547434
H        20.66364838050827    2.03326572443346    8.59954223543218
C        16.54865254349652    2.36268272276897   11.68063436696702
H        16.36011668030362    1.41175294645992   12.17921009497468
H        15.65047128274193    2.97057304287469   11.76200109201841
H        17.36075487656786    2.85852080170535   12.20655029437464
C        16.27362932330364    1.92079793339534    7.92315859081648
C        12.02983523904048    8.43811069974061    6.16654757521629
H        11.66290910785440    9.19004209858841    5.48786787885136
C        12.74804072745500    8.76203621832151    7.29027188066523
H        12.96516015677167    9.79324702084922    7.52161044575859
C        13.22338540009223    7.73928703601114    8.12295033651443
C        12.89110332988663    6.44143876533857    7.76285493425264
H        13.18774750676133    5.62258714830505    8.40388443257200
C        14.02298471008880    7.98462773222398    9.32614891939256
C        13.77350758497682    9.08865804723028   10.13627272955783
H        12.97190323876163    9.76738129844412    9.88474649750689
C        14.52240123665765    9.31147448482069   11.28276097269688
C        15.53067325392683    8.41384561709140   11.60991440484055
H        16.11802860827762    8.58133774865479   12.50108878649975
C        15.80433293528124    7.30749471930342   10.81472392643077
C        15.04347651060109    7.10082146304703    9.67543273975537
H        15.27138570272250    6.26271689962884    9.03216435593703
C        14.26608489462560   10.50504232235031   12.14866003198677
H        15.03980120731776   11.25472165636928   11.98394931462915
H        14.29068057406236   10.23025258580627   13.20085625709251
H        13.30264210629220   10.95471743103292   11.92357990624076
C        16.90804480039483    6.36550806964912   11.18672205113110
H        17.86973471940267    6.87247778528833   11.12099046650509
H        16.92920539302481    5.50150262306976   10.52672032834804
H        16.78565607810114    6.02316225465957   12.21285153514244
C         9.15001542195224    6.33792123753059   -0.56867709144408
H         8.23691106408949    5.82809024816499   -0.87348368123219
H         9.77681748667802    6.44038346630799   -1.45353945270691
H         8.89108156421715    7.33026503396462   -0.21103535321134
C        10.03355536152703    3.62433297692330   -1.10374559756482
H         8.96612650251730    3.59579409541948   -1.31885998278897
H        10.42253107193196    2.61083690093643   -1.13931550337679
H        10.50934447486573    4.20644721292526   -1.89194147962511
C         9.42362355268081    4.43082501722286    7.15896176034004
C        10.23057296146421    4.13803131296020    8.32945970672670
C        10.78215094802843    2.84967439446051    8.16723105260663
C        10.30845591155062    2.32080734238442    6.89933504846206
C         9.39879468772228    3.26153389943657    6.33946664216598
C         8.52720185063124    5.61563127782212    7.00496679280909
H         8.90675904897093    6.47167789287563    7.55746521609536
H         7.53382993031684    5.37712821519265    7.38752330397742
H         8.42682174727540    5.90092391218884    5.95953502675102
C        10.30508719311270    5.00280524354318    9.54570928215256
H        11.16282070966266    4.75220871688955   10.16509984598886
H         9.40390308493645    4.86004646454798   10.14353297324618
H        10.36707156213426    6.05727796098250    9.28296205443246
C        11.54689988315423    2.06450680524369    9.18431737936177
H        12.31800020033448    1.45275479925733    8.71878846764864
H        10.86620823326905    1.39660580919744    9.71411652991249
H        12.01499291989831    2.71652497579411    9.91827105881316
C        10.50928607059745    0.92040973023474    6.42019763496792
H        10.57177362089435    0.88076145966698    5.33404339469664
H         9.66679931440556    0.30183013900759    6.73258164764528
H        11.41807102320095    0.48793300009963    6.83214864462484
C         8.56560771079878    3.05738413435354    5.12065369350797
H         8.34978178269576    4.00156769856135    4.62511988597288
H         7.61648888976289    2.60040320598666    5.40484593446100
H         9.05821144517992    2.39558397910869    4.41120748653718

