76
CSD_code = HUPGOQ | q = 1 | S = 0 | Stoichiometry = C33H36IrN6(1+) | MND = 8
Ir       11.43014773264189    4.62962674615658    3.60385114728247
N        12.46562637879369    3.46434730058313    2.29181434479861
N        13.99184404748934    2.45807943697901    3.81479533528952
N        13.17224050868196    4.43549386521706    4.87271843707872
N        11.29211087305621    4.08484820497233    0.41357560044781
N        12.02027099500337    4.79394533959069   -1.66796444396731
N        12.27549602126624    6.10963392125269    2.61201578427580
C        13.48276984922579    2.64799721727589    2.64080798221154
C        13.94284072815508    1.94343789171137    1.44388244215997
C        13.17750100473333    2.42434158870125    0.36996326423547
C        12.23635493836631    3.40337375095927    0.93762440561498
C        14.91561466581352    0.98082087337408    1.26508883858032
H        15.49369289932686    0.62260886947669    2.10124542821667
C        15.11020040016466    0.49676206332264   -0.02253738632766
H        15.86242653554421   -0.25657122986558   -0.19985637343041
C        14.35057043552554    0.96363986826637   -1.08575073610457
H        14.52249961466213    0.56601486548696   -2.07434180558016
C        13.37035661230085    1.93328924776699   -0.90620756988836
H        12.78815470973128    2.28837370180337   -1.74128013399786
C        13.79507597008239    3.22534214782938    4.90142017485077
C        14.39239441509093    2.75897646973617    6.08816432979874
H        14.82155054402511    1.77173996429364    6.07253897139328
C        14.43519696370591    3.56773242814543    7.19400609839272
H        14.88198975032189    3.22723314902371    8.11493778240345
C        13.92945313020736    4.86059324733086    7.09079974081957
H        14.01833584354069    5.55347366300718    7.91140663259887
C        13.30597560893357    5.26415427119634    5.92325404732027
C        11.06579397791904    4.21630999675157   -0.93578367333688
C         9.82733320303212    3.85753204273967   -1.47690046516121
H         9.07768729437401    3.38599539112415   -0.86147085331585
C         9.61146787900980    4.08423818368493   -2.82232671546073
H         8.67228835789873    3.80353917736301   -3.27537030684195
C        10.60936047166453    4.67440820042779   -3.58061716932609
H        10.47012162030224    4.86674612332126   -4.63218252564776
C        11.80358758940495    5.02091935099372   -2.95690517702520
C        12.83301082102089    6.68029684365094    5.80747213318047
H        13.66465103497469    7.29603700056071    5.46440713763388
H        12.51654540787505    7.05712441808679    6.77588321733269
H        12.02206204088063    6.78465738418510    5.09246131306373
C        12.91540638108146    5.67467306350748   -3.71527178199584
H        13.80992412124819    5.71783948549806   -3.10081580739362
H        12.62842415120095    6.68620971092331   -3.99892580586444
H        13.12877686791900    5.11985105836700   -4.62611490731083
C        10.06918552449582    3.29407793921155    4.66324998254345
C         9.54265808765427    3.43342044924150    3.33999872371838
C         9.26100292120928    4.81468474023760    3.12693795477241
C         9.46996802133021    5.51275392000096    4.38251017570707
C         9.93023285131406    4.57346241770310    5.33036079403040
C        10.34961769530501    2.00002227870681    5.35781723844485
H        10.79153402289291    1.27616241074979    4.67668145574030
H         9.41986041817895    1.57961518270224    5.74383284218863
H        11.03023636265788    2.14141235318278    6.19454097344992
C         9.25324970235897    2.33075398112358    2.38392992413212
H         9.40235448511736    2.66065301445123    1.35984685081102
H         8.21204994301649    2.02487482359738    2.50000131153552
H         9.88377142960359    1.46501336695289    2.56995321205477
C         8.59866637304725    5.37723063223675    1.91565103337857
H         8.54183840557559    6.46070755165372    1.96413214287401
H         7.58587603224156    4.98129451008607    1.83474261433017
H         9.14814986882429    5.09647937159770    1.02000144443017
C         9.04925878815338    6.92151175037984    4.64939042460495
H         9.50078610044808    7.30903952700410    5.55897933655867
H         7.96557399203256    6.95622406960384    4.76951728254529
H         9.31508021754127    7.57858070747313    3.82373708128359
C        10.08985676728853    4.77636546743376    6.79911931125953
H        10.97092152995553    4.26495783576196    7.18194349236571
H         9.21856313193877    4.36011188922089    7.30734043585160
H        10.15831021419221    5.82968964101819    7.05525948204777
C        12.81147166052531    6.80355000452849    1.86565618186097
C        13.44872741257664    7.66972123008540    0.92909904380297
H        14.45856163298912    7.28857254898601    0.75129238675874
H        13.52914619745890    8.66932139596087    1.36712781881540
C        12.66262757846151    7.71515556991489   -0.38683229594174
H        13.19051746500579    8.34458706020019   -1.09701691952237
H        11.66982648451678    8.12724733164141   -0.22771098719503
H        12.56508628588967    6.71435873257246   -0.80430170023389

