64
CSD_code = HUPGAB | q = 0 | S = 0 | Stoichiometry = C17H34N6O2P2PtSe2 | MND = 4
Pt        4.25100676485444   16.76000920565524    6.14877905738242
Se        3.15441972974621   17.76237144000015    4.25700051981631
Se        3.36228421653886   14.58650497345191    5.64508757862632
P         5.46353486352632   18.73840930760322    6.35844580173091
P         4.89371342854977   15.92346007447194    8.22353364223883
O         0.86580530187792   16.28945469029061    1.14788644312991
H         0.89040999824038   17.20487573691083    1.44811403799348
O         0.67211873652105   13.15196422131580    2.86070741651613
H         1.32337464067200   12.62784845848900    3.34025985952600
N         6.51752184346597   20.98221983526376    5.13830375095449
N         7.62138195661441   20.26024122262320    7.17375063760750
N         5.44302361447780   21.33717923377550    7.28514068914627
N         4.54921996979009   14.05975188897704   10.23220735904969
N         6.84134220031111   14.67481508562505    9.72529093035140
N         5.39811353951081   16.22521661611258   10.92247704263873
C         1.56414132737458   16.61632510086840    4.00584891330830
H         1.20178333984295   16.38895971680072    5.01147931395336
H         0.81502949851848   17.24097695850091    3.51404212177873
C         1.80472943842908   15.32521383892701    3.22907166581752
C         3.09210541733985   14.64700446949883    3.68824865571046
H         3.96006289959453   15.17530753560573    3.28586367362782
H         3.14056383015539   13.61200880086786    3.34204509233224
C         1.94783078348076   15.60029813317326    1.71427773808577
H         2.88590115786332   16.14797639537666    1.53945935167187
H         1.99204768489970   14.64105268533662    1.19260907252612
C         0.57785213060390   14.41423899497453    3.46395662765073
H         0.41436555133564   14.31099266726436    4.54715401589342
H        -0.29685584116138   14.89108208913491    3.01491319275073
C         5.88281440846700   19.71969880012391    4.83057929701743
H         6.55006417543134   19.12237439279536    4.19803068197782
H         4.95913158000386   19.90340232578245    4.26701546689349
C         7.77952736801480   20.79788483234019    5.83059308843127
H         8.41495941474311   20.12503799802616    5.24873974380134
H         8.27152616077103   21.77195425539906    5.91269539921481
C         4.64402593331748   20.13035869976362    7.28316133001383
H         3.67931967268315   20.33448702776889    6.80335992178031
H         4.45400967081502   19.82280294160108    8.31843818657736
C         5.65797057014997   21.83906152629249    5.93656833399023
H         4.69229473946364   21.94212332357981    5.43582200684235
H         6.13140422907611   22.82287097024878    6.01212279651407
C         6.72999401383309   21.13034515258308    7.92564406431903
H         7.21915011456874   22.10387323374541    8.02884476829379
H         6.57107460232272   20.70620659451944    8.92149256902433
C         7.15090659349859   18.89250792212474    7.15039310923016
H         7.11966567717754   18.51635562142056    8.17954891450004
H         7.86342846603878   18.28081163710017    6.58373348176640
C         3.97062133484859   14.49254773759889    8.97916895537033
H         2.92810354567567   14.79036578755182    9.14258644372037
H         3.97288611370127   13.65717853443855    8.26753558794316
C         4.51739628173496   15.10914317953536   11.23431689967888
H         4.83935382716861   14.68160459869705   12.18888567223268
H         3.49393962440191   15.47929528168678   11.33614700436279
C         6.59549937153990   15.18716086738955    8.39414902527152
H         6.68779873581311   14.36984547877536    7.66909809088369
H         7.35140808058465   15.94434832875148    8.15502563502111
C         5.91801280983615   13.60322764163266   10.06637629628187
H         6.24736512833617   13.16002973363883   11.01128491704984
H         5.94873282302230   12.84218476256707    9.28292609566464
C         6.74841267152768   15.71875682608236   10.73105416666821
H         7.08987300364662   15.30345472125035   11.68428524528949
H         7.40556012831043   16.54698689909573   10.44987193098149
C         4.93056494305805   16.96849682386256    9.77279917374322
H         5.58419373404447   17.83615195555979    9.62563814869375
H         3.91668242940632   17.33540420979789    9.97351334913744

