45
CSD_code = HUPHOP | q = 0 | S = 0 | Stoichiometry = C16H24ClN2PZr | MND = 12
Zr        6.73774325331492    9.23572563545690    7.05729204776797
Cl        4.42994398020849    9.19851460394620    7.56550144036066
C         8.02335111443248   11.37929515617212    6.68961966570426
H         8.56776618019482   11.60770954677341    5.78155466941245
C         8.55820062150116   10.77341335860120    7.84525377890430
H         9.59289742700974   10.47937064515368    7.97736675804453
C         7.56020126147639   10.78870026394269    8.84944138121446
H         7.69769491595509   10.51431019424641    9.88967316836372
C         6.41540088752906   11.41093325116479    8.31366200305277
H         5.51375629890768   11.66275481058843    8.85889658739949
C         6.69115757610406   11.76221998826642    6.97448580574116
H         6.04663662320946   12.34648081247193    6.32732810294257
C         7.42722214326019    6.85212970094149    6.53602146279601
H         7.40898747875929    6.40872655042276    5.54717112946209
C         8.54335964996357    7.48067806379523    7.13645164808024
H         9.52021704606424    7.59600187718006    6.68213527053805
C         8.20931744283742    7.76656581685488    8.47821997852080
H         8.89792955086092    8.11318073890376    9.23961367250802
C         6.87984979827046    7.34843438142694    8.69873631529877
H         6.35931678803883    7.34505112949647    9.65013617459175
C         6.40114447695029    6.77197033750868    7.50068611895304
H         5.44832973955380    6.26972040099529    7.37790801857813
N         6.93773091785830    9.27635586764235    5.09228244316022
P         7.08729491071622    9.25777271694960    3.56796289382340
N         5.55795483949828    9.13237023662812    2.82126915673130
C         5.55885310985129    9.10745950051569    1.37033167885037
H         6.61558647603855    9.17761396736994    1.08448842971412
C         4.83039507142232   10.31202555355603    0.77423841599830
H         5.23991571479953   11.23204341135211    1.18485496662234
H         3.76564098022998   10.27747961749265    0.99108000002203
H         4.95929040230314   10.32475217068463   -0.30485982805161
C         5.00975446542208    7.79156044810642    0.81903572289139
H         5.54700080337924    6.95383555882870    1.25766298856052
H         5.13806662614260    7.76082945084684   -0.25976197439087
H         3.95126008091863    7.68092016183984    1.04097501718847
C         4.28490274648994    9.06047280694798    3.52692350843522
H         3.48488709782449    8.98836828753637    2.78065983414183
C         4.05705454444090   10.32940238712610    4.35175172809248
H         4.05996501252987   11.20353657078772    3.70316538528575
H         4.85106491958267   10.43280053347235    5.10009416380595
H         3.10019885372744   10.27241648488527    4.86509220134362
C         4.22860351291550    7.81078266385961    4.40930857491519
H         4.36759179411193    6.91733225114270    3.80316438602444
H         3.26388633450777    7.75333009634247    4.90804606734534
H         5.01627653086188    7.85735199177229    5.17007904125366

