61
CSD_code = HUPHUX | q = 1 | S = 0 | Stoichiometry = C28H25F2IrN5(1+) | MND = 8
Ir        0.76807024068855    7.50285157265238    3.10623865357907
F        -1.32514018718786    7.97393759932022    5.24690325351290
F        -0.79700038095718    5.42086415701121    4.76435463050461
N         0.25440550365646    7.66625440605024    1.16284586525855
N        -0.47521013773136    9.91293319421653    1.12051230452391
N        -0.91326182611683    8.87457275137614    3.23602865178348
N         0.83540534908016    5.49808404692604    0.42306469891923
N        -0.00176397355758    5.48770326974147    2.67097807249317
C         0.13452084340872    8.89891907235360    0.59808895082825
C         0.68755300454952    8.83981902040476   -0.75531735428864
C         1.08605506227682    7.50615073529681   -0.96526545805291
C         0.76392489130088    6.77971120594767    0.26376816234634
C         0.82337017835784    9.79002195140743   -1.74636489925569
H         0.50207474119230   10.80617151905135   -1.58440217147712
C         1.39045000041683    9.38580703124326   -2.95106880445258
H         1.52083514805714   10.10768679395356   -3.74258674377336
C         1.78499938105463    8.07148154796590   -3.15758129012282
H         2.21671302095782    7.79202258243755   -4.10633221634192
C         1.62802060616627    7.10495864807474   -2.16890498845578
H         1.91924852020562    6.07952219728552   -2.32898823495765
C        -1.12754562517578    9.84364620075381    2.30485228510110
C        -2.07334136903248   10.85338686667550    2.54654206462179
H        -2.20587307955134   11.59984232198772    1.78182414009126
C        -2.80368134707550   10.86230009632491    3.71289451086946
H        -3.53599463002890   11.63163580165836    3.89892829176967
C        -2.57669405361488    9.86875481116112    4.65994391706768
H        -3.10253234480650    9.82177190758383    5.59808712116613
C        -1.61989398972290    8.92580038458715    4.35716134127586
C         0.31580734370686    4.86582296957999    1.50362330725752
C         0.09650424576919    3.48679431832391    1.35893216265506
H         0.36790624904723    3.03803664339330    0.41844468663726
C        -0.46253303436768    2.75743212543262    2.38397745863558
H        -0.63693154277673    1.69882604527737    2.27546112288381
C        -0.79568189415396    3.40376764649238    3.56928099384909
H        -1.23111586459349    2.89527170578726    4.41231930466237
C        -0.53140589501587    4.75445082991285    3.63868340363958
C         2.16241465899453    6.99174332877285    4.79353706832994
C         1.89254867785190    8.37113626067236    4.85084133665637
C         2.33022118504339    8.97154899058492    3.59750602652094
C         2.98354274872559    7.95686020707347    2.83170318399108
C         2.78720872182414    6.71519153424273    3.50602117707870
C         2.01738368915992    6.03099123421542    5.92534229049111
H         1.08078296809365    6.18970441996515    6.45521793614040
H         2.83524724773268    6.18031859150760    6.63168754557384
H         2.05117534280988    5.00039167347751    5.58220405747202
C         1.42006125833881    9.12328344344722    6.04752844218810
H         0.87999046110202   10.02568551144720    5.76920423612205
H         2.28538197612699    9.42143474702585    6.64171480956214
H         0.77894144696864    8.50623640470796    6.67149645537617
C         2.38540252525102   10.43573672120893    3.31756405929474
H         2.29569819039679   10.63976901790456    2.25244008036551
H         3.34168929350753   10.83467966154639    3.65923585478245
H         1.59273755283252   10.96944195339609    3.83654903528746
C         3.74355235377223    8.15757656723244    1.56707872353521
H         3.68518125546577    7.28192520503399    0.92401621889234
H         4.79450771421458    8.32867555544938    1.80578803946483
H         3.37980558812566    9.02195454335749    1.01583729535241
C         3.39341469938023    5.41438777381421    3.09819794524237
H         2.89965944350800    4.57447406594339    3.58146974773458
H         4.44549807177119    5.39978132754612    3.38649762628619
H         3.33808977457234    5.27285728277797    2.02019361348987

