68
CSD_code = HUPHOR | q = 0 | S = 0 | Stoichiometry = C30H31IrN6 | MND = 7
Ir        6.14934594855511    5.27384302641410    4.66724613802675
N         7.68527233859794    6.32226677547089    5.37910807025686
N         7.77240170541217    6.97915641046347    3.24139215764105
N         6.72502616310219    6.17877933751156    3.13763981193981
N         9.51147695256090    7.97977363061483    2.04466516879725
N         7.84150328834812    5.84121588920488    7.63193395166708
N         7.80698014771598    7.16760290215003    9.53513973996852
C         8.30211422082230    7.13477058901770    4.48167829593815
C         9.24678480768183    7.99358400408811    5.14401705697396
C         9.19230430250931    7.63228908514743    6.51219249776000
C         8.19855422368078    6.56271126157607    6.63768031427806
C        10.08871409070929    9.01770096241761    4.73303720611784
H        10.13196948076228    9.30469420371987    3.69661285474350
C        10.87357834512965    9.64682596430512    5.68442171153874
H        11.53199472219239   10.44762619473473    5.37940858062424
C        10.83642220612330    9.27152670466916    7.02135112492670
H        11.46699421485828    9.77826689188359    7.73676712053616
C         9.99123367911717    8.25850879677766    7.44883418497368
H         9.94927503050051    7.97712706610892    8.48897630879544
C         8.26349481342013    7.54184411899230    2.04961378321523
C         7.43982758983212    7.56528115245050    0.92470450517517
H         6.43954980647637    7.17472014114115    1.00048298407063
C         7.96554286044968    8.08457324049117   -0.24276196387554
H         7.36491771589105    8.12770430055741   -1.13950225202210
C         9.27261555048285    8.54759231284731   -0.25068836082950
H         9.71327955407293    8.95461143661796   -1.14754449062670
C        10.01694378611426    8.47408634904817    0.92290495255288
C        11.43247893016551    8.95687850651913    0.98604758907387
H        11.45362383521565   10.04637106735444    1.00214434073037
H        11.99086498857433    8.62146739507400    0.11523024314106
H        11.90622102433817    8.58448874474020    1.88956749049828
C         8.14576091243094    6.01748199521950    8.94767708865032
C         8.67354277810126    4.93870303108018    9.67348696282900
H         8.94299427237800    4.02951375226637    9.15974924018871
C         8.86183585535010    5.09310821068074   11.03014830387746
H         9.28011503987555    4.28727532714128   11.61728515506615
C         8.50342130718969    6.28936488400944   11.63453742242037
H         8.62930080677914    6.43791294194961   12.69603313010639
C         7.97349770408955    7.30143910601763   10.84095584754250
C         7.56330752081863    8.61734231691953   11.42952891869609
H         8.39355697278459    9.06603853520432   11.97234511600753
H         6.73932711589865    8.47615709239672   12.12743468708425
H         7.24651590593305    9.28623829070593   10.63475778511726
C         3.98974012303206    5.02561162107844    5.10936127916138
C         4.69525949946447    4.68474902652199    6.32207065992804
C         5.51162394794053    3.57329887698957    6.05899950266795
C         5.33893502568678    3.20041053206806    4.68103448209854
C         4.37423599978550    4.08715149600513    4.09893680965923
C         2.86807147114108    6.00957067482297    5.00056906701081
H         3.03434298397298    6.87088779421006    5.64388835614190
H         1.93206739927572    5.53424862601635    5.30185411502457
H         2.75778970494683    6.36069116317044    3.97758327948207
C         4.53008026642510    5.31785586963942    7.66402127143768
H         5.49457833541867    5.65556908286761    8.04437873341527
H         4.12798892473284    4.59337050308604    8.37389092351745
H         3.85695784931837    6.17001275710420    7.62100033624160
C         6.33384803588237    2.86726815007016    7.08691854961607
H         7.01466296591999    2.15370752140416    6.62917978904106
H         5.68711073158043    2.32830455159630    7.78206037139707
H         6.91405436612746    3.59170474324953    7.65582264833592
C         5.86770433121441    1.95738257910391    4.03792854113212
H         5.98376330657579    2.09280354568889    2.96519781930186
H         5.17084070590588    1.13304641963261    4.20430797651740
H         6.83188859716902    1.67560991227361    4.45534116741690
C         3.71102164299320    3.90857563917383    2.76776882704368
H         3.37880881473107    4.86374186888884    2.37042172105684
H         2.84238882332319    3.25459929785445    2.86642446143310
H         4.39635363237709    3.46416380178986    2.05129853773725

