64
CSD_code = HUPJAF | q = 0 | S = 0 | Stoichiometry = C28H25F2IrN8 | MND = 8
Ir        1.14111484436400    4.85022879409897    4.00311032586518
F         3.85963233501269    5.43465634242616    5.03838193663170
F        -4.68806272512861    2.16043899375176    0.62498548645992
N         0.17819515245445    5.78564780146120    2.48581049242835
N         0.68966664820674    8.07807514126105    2.90976119849077
N         2.23330713644538    6.67776328892962    4.09055254693845
N        -0.55367164119048    3.82883745217019    1.58264623678313
N        -2.64829313279295    3.00399908198782    1.01912870710201
N         2.44710618749757    4.26417425270441    2.56797327267914
N         2.37904610241751    3.20016688061488    2.08397405287562
N         2.42548195963087    2.19717578785947    1.55273454718718
C        -0.63020533469292    5.10209220226861    1.61363897198208
C        -1.37636048233286    6.08972429406072    0.81738711328167
C        -0.95237262095201    7.35009996733740    1.26853008058695
C         0.05009654419338    7.11208452490482    2.31114619775546
C        -2.31819440936137    5.97842116311394   -0.18503198635581
H        -2.65551225469452    5.01521939026062   -0.53198760838751
C        -2.83021947753393    7.15282805370247   -0.72561715123198
H        -3.57166632801311    7.09371317436078   -1.50848106767909
C        -2.40954856631535    8.39675778664521   -0.27851261353214
H        -2.82964120482356    9.28821690426706   -0.72047209316566
C        -1.45778340796217    8.51425370061027    0.72713597673652
H        -1.12005392097403    9.47494085605840    1.08115783025381
C         1.73233919460884    7.89609764259038    3.73396230568818
C         2.35903094265019    9.07170588846540    4.20028756010823
H         1.90595121090750   10.00924565806766    3.92613518319269
C         3.51214702562059    9.00618147863932    4.93883499180995
H         4.00076920375596    9.90299306245913    5.28620972477549
C         4.06299688021250    7.75592087176960    5.22033676408939
H         4.98553479202701    7.63217323661939    5.76067158544600
C         3.37232580616235    6.65572340796441    4.77048614739040
C        -1.31421838233565    2.92640582864763    0.92039767242135
C        -0.68003272639430    1.85345755212937    0.27261845309503
H         0.39732812838178    1.82406809265236    0.24516545697933
C        -1.46085502871678    0.87500766662963   -0.30289396000727
H        -1.00216429864895    0.04363590612549   -0.81679588246798
C        -2.84663939888719    0.95099869650478   -0.20324564262414
H        -3.50335530781188    0.20689004791863   -0.62092131499678
C        -3.35383073373259    2.03999452738599    0.48047065343677
C        -0.73951846829004    4.00333420368594    4.95027805657801
C        -0.11702407989697    4.89801550010468    5.85929217077941
C         1.16996460848425    4.35115676159853    6.21058207557815
C         1.36324573032210    3.16108620554856    5.46789482780487
C         0.18973260823940    2.95351938866683    4.65157029168842
C        -2.15338101625259    4.09393336573796    4.48195205206576
H        -2.48014368389421    5.12991928133165    4.41425514110772
H        -2.80222736652364    3.58200075856672    5.19549187834376
H        -2.28735165701144    3.63166743725354    3.50765813337847
C        -0.77369845274153    6.05713718429650    6.53934058483940
H        -0.03801077585944    6.79159685931755    6.86283739848651
H        -1.32081884037763    5.71560848973793    7.42052243418882
H        -1.47990897398020    6.55207995490402    5.87527527908401
C         2.02468796549994    4.84301165270679    7.33412117874211
H         3.03960731859359    4.46374631189656    7.25103184322959
H         1.60588844119095    4.49427121099598    8.28027289618402
H         2.05967244109017    5.93145062499610    7.36700326559189
C         2.48377566944174    2.18293789118416    5.62106115250119
H         2.60440034316000    1.59387756321950    4.71532158301472
H         2.27112272053310    1.50257838447405    6.44804077178425
H         3.42238908386538    2.69232178174134    5.82697146103437
C        -0.10151292526438    1.68636422649267    3.91495916008940
H        -1.07813063877654    1.72685058243458    3.44228842655388
H        -0.08363083025978    0.84701832221740    4.61177325932547
H         0.64068206745199    1.49390065747990    3.13933252600901

