71
CSD_code = HUPKOS | q = 1 | S = 0 | Stoichiometry = C31H33FeNO4P(1+) | MND = 8
Fe        4.75626974572473    2.52282029050294    4.07114380428889
C         3.39178990892549    1.55593959228072    4.59938161482197
O         2.53100965817421    0.83027810935274    4.76905060116893
C         5.86561259813493    1.33989111799250    4.73481917001604
O         6.58071309517875    0.50947455552459    5.04318689306336
C         6.00836160165571    3.50198467676498    2.56785516987494
C         5.66574554062574    2.18320945304877    2.14134311124796
C         4.24055243255877    2.11078531655998    2.03707749547649
C         3.70639325736681    3.40093661912418    2.36923484280783
C         4.79960593686117    4.26529756844882    2.65601839784663
C         7.38739932472835    4.07484585528627    2.58567638083388
H         7.65461539474071    4.41146297040946    1.58281895236168
H         8.11554584274679    3.33016631422684    2.89526556358453
H         7.45328680865420    4.92682132976809    3.25720919351975
C         6.62350293047456    1.13140611263106    1.69150296250433
H         6.22281924622776    0.13424163103307    1.85346813680750
H         7.57458447327750    1.21214529006849    2.21044096488874
H         6.80981001933734    1.25073712686318    0.62307504079761
C         3.47121852736184    0.97706958261371    1.44484061813024
H         3.46406407978023    1.07378507519743    0.35812606209295
H         2.44076173738338    0.97377092518070    1.78892031467265
H         3.92314849185779    0.02058858278644    1.69462804213540
C         2.28088751498069    3.80972276629699    2.18296230371055
H         2.03797026632217    4.68797276765726    2.77454533982304
H         1.60276056582998    3.00854011187835    2.46512266523536
H         2.10283847330807    4.04708070168061    1.13327725672383
C         4.74626493357247    5.75002661814475    2.77122305303691
H         5.43880975601593    6.12106639482410    3.52365763406297
H         3.74323207544377    6.09871468156039    2.99989336874846
H         5.03976487805411    6.18037274227013    1.81204038342358
P         4.71460413955735    3.81430899172466    5.85355549167704
C         6.02592734889020    5.07872933717220    5.94974629756065
C         7.31289847078171    4.53503885272958    5.93337584291946
O         7.37732559130546    3.17879243168280    5.82758595533731
H         8.29050178473299    2.87551015704173    5.90626427392946
C         8.42813228678254    5.35496995883120    6.01404065291132
H         9.41941683289953    4.92564640293582    6.00476081020238
C         8.26956447795657    6.72290417874666    6.11011005796177
H         9.12097223909440    7.37936860139357    6.17677091559717
C         6.99303771474333    7.28342097884593    6.13083576053767
O         6.89687460866385    8.62818635576123    6.23163274969694
H         5.97651095720635    8.91619483565363    6.26225698659273
C         5.87555861337271    6.45841981607256    6.04674739238783
H         4.89191500579654    6.90667250475449    6.08056745096807
C         4.96075478726543    3.06348564821337    7.49569600086664
C         4.79664939020383    1.69408828871355    7.66432421472429
H         4.52344937803600    1.08946806948787    6.81148167364856
C         4.96408144488801    1.11846409081074    8.90964914410252
H         4.83106004788974    0.05455466736652    9.03271424782682
C         5.30119381479838    1.90612812187085    9.99888302221862
H         5.42672752329511    1.45792689619156   10.97227349776779
C         5.48824131064272    3.26787659962271    9.83352767356552
H         5.76540624624567    3.88262253371969   10.67650572572267
C         5.32664433379439    3.84634233752294    8.58713360071053
H         5.49897197376952    4.90663209826429    8.46534537544698
C         3.15083250688859    4.80648071780571    5.88423977766936
H         3.33292951276641    5.73738675555746    5.34565695184399
H         2.42060795566396    4.22080473346755    5.32274273415254
C         2.58712844135068    5.07822056744111    7.27159339436574
H         3.32459882802853    5.55909211369317    7.91773479522779
H         1.73462566588276    5.75986193740030    7.18696456165117
C         2.11541265469559    3.80353299533390    7.91521903571720
N         2.12953506388343    2.71441550922734    7.15751034459523
C         1.68671363374022    1.57979405001486    7.67817346177257
H         1.69951363761907    0.72414590369733    7.01714351154301
C         1.22732907144525    1.46410751061489    8.97787248945476
H         0.87558041247061    0.51722657950245    9.35365637496101
C         1.23365810478825    2.59721083745327    9.77733021772855
H         0.89197130911578    2.55269593637074   10.80021015121216
C         1.67983997852857    3.78898528734945    9.23602476421325
H         1.69226378527505    4.69533093000992    9.82163728140199

