72
CSD_code = HUPKEJ | q = 0 | S = 0 | Stoichiometry = C31H34NiO2P2Se2 | MND = 4
Ni        5.10143848198288    1.70220403021244    4.26373852021718
Se        6.32870531429119    3.50865055985298    4.92499965132910
Se        3.29905165849018    2.26961187809899    5.57542569236479
P         6.77644153749632    0.85346245349641    3.14124833899105
P         3.94835130576327    0.08172468306009    3.35988322792884
O         5.05492549550993    7.20222759741355    7.02059707661177
H         5.93433910099360    6.90152927648331    7.27386503189601
O         2.64100346965356    5.90499545606419    8.10022032362925
H         3.04433482175311    6.77370596753859    7.97191749787308
C         5.59271469562924    4.12360104016697    6.65743210553139
H         5.46016536350647    3.23154252355622    7.27339009412681
H         6.37745720640589    4.73786207285650    7.10770150960193
C         4.28051475772589    4.89709465849230    6.56166195582799
C         3.28373025893997    4.24626224246811    5.60395684157661
H         3.47039896662587    4.56433880963618    4.57535865203149
H         2.26797584551882    4.53169730252560    5.88508599260414
C         4.54644460171698    6.32622445495382    6.04086435387370
H         5.22999665289030    6.25878658863145    5.18167275656195
H         3.60993979871354    6.77866242044514    5.70420652415578
C         3.66050383451492    4.95199711564325    7.97703942692360
H         3.20416364802666    3.98097947797527    8.19413547050735
H         4.45184053944956    5.13829418382027    8.71854680509727
C         6.19250950276130   -0.36423227958719    1.87108272543117
H         5.83947887499948    0.19938539469852    1.00083280040541
H         7.01241703531628   -1.01836086923425    1.56084350628717
C         5.03735726563667   -1.14189313673490    2.48702599792065
H         5.42288372901765   -1.84566501114614    3.23167260713185
H         4.46477104382651   -1.69730923210212    1.73862770138049
C         7.41338744302233   -0.26558240285323    4.42812884678725
C         6.79291848876884   -0.23769248065189    5.67367076477019
H         5.97244156530563    0.47427994551000    5.86067304662795
C         7.21170625628080   -1.08801471325074    6.68013805596550
H         6.72723100827173   -1.06489155412871    7.64496375068087
C         8.25704154509875   -1.96601331982605    6.44444485752998
H         8.58859682046777   -2.63152559005419    7.22783250092722
C         8.88601770270554   -1.98928705675049    5.20855183659564
H         9.70617717546856   -2.67052695652738    5.03365361050078
C         8.46912907692371   -1.14168119668638    4.19911041115475
H         8.96457676493385   -1.14823595292648    3.23724248070069
C         8.29537908626358    1.55145135083129    2.44469175326585
C         9.24521211976906    2.05086265828638    3.33349679728772
H         9.06568446996191    1.97668831584711    4.39767564572576
C        10.40031735241547    2.63823392912898    2.85550646554432
H        11.13529295857332    3.02026067344482    3.54815224405553
C        10.61221649764133    2.74134288334893    1.48984767150393
H        11.51557554017249    3.19980187282258    1.11563172424700
C         9.66010023043780    2.26624980934981    0.60325740948947
H         9.81977025599947    2.35658902497375   -0.46151832501011
C         8.49916391711154    1.68044525314259    1.07505338514157
H         7.75540280185522    1.32529847750438    0.37596882791464
C         3.25857188796277    0.99170655655280    1.94382652329584
C         3.59757763365662    2.33511656771205    1.81308438100720
H         4.23957110338204    2.81199383729004    2.57113770703512
C         3.12397992971442    3.07337566074981    0.74455816865990
H         3.38821719592458    4.11587884187502    0.64607551015695
C         2.30494375195001    2.46943264509275   -0.19549422708106
H         1.92847566815354    3.04298624365684   -1.02962071034246
C         1.95990849522294    1.13235596341459   -0.06684473401546
H         1.31584269173979    0.66873506157354   -0.79999613424061
C         2.43373391214143    0.39031735485587    0.99900498533771
H         2.15739338356119   -0.64989896137288    1.10999755308986
C         2.54529992414966   -0.90030522229745    3.94534820469537
C         1.29790815215454   -0.28697508280144    4.03879589398803
H         1.18429461570555    0.73958465530204    3.71878365474967
C         0.21782539805434   -0.98704559531600    4.54095398423743
H        -0.74747019557471   -0.50801971202219    4.60844194073125
C         0.37476560063505   -2.29724487184188    4.96332556548849
H        -0.46972143533753   -2.84428160677026    5.35550592684745
C         1.61868872638751   -2.90274599683762    4.89445002135309
H         1.74513055034539   -3.92008851652057    5.23558942423449
C         2.70505104562929   -2.20630787783549    4.39732989762599
H         3.67581807982669   -2.68060257430920    4.36453951397143

