53
CSD_code = HUPLAF | q = 1 | S = 0 | Stoichiometry = C25H20FeO6P(1+) | MND = 8
Fe        2.66855691878762   13.61272887998869    2.74207069633880
C         3.29666323604698   12.35372608196696    1.70168690307913
O         3.67286261659349   11.52599169015916    1.02108517572678
C         1.07714018931456   12.96078635250916    2.41364059275155
O         0.03244452370585   12.65594070475345    2.08690268918455
O         5.54420925032202   12.62681380906297    3.37298956439808
H         6.40089484791908   12.61149976140497    2.92862249195092
O         5.65165916682923   14.27289410250600    8.60944373436574
H         6.52157776024645   14.55695255206708    8.91730375386751
O         1.46303226612830   10.56710505475114    3.18181060655160
H         0.83558057627691    9.97749239278476    2.74169059751140
O         5.89169299865330    7.94938964989838    5.08966754600101
H         6.47401577466349    8.53453552397822    5.58917191962382
C         2.46217858546765   15.41791258089062    1.56413954577920
H         2.02967500817206   15.53881229907378    0.58460371262849
C         3.84875614067963   15.28499329932341    1.84460950798591
H         4.63287019932623   15.22557135420901    1.10946250389509
C         4.01709627133993   15.33525615239428    3.23493488328659
H         4.95450021021869   15.37191276713973    3.76213358327745
C         2.73420535747656   15.52440160407039    3.83221992829792
H         2.55922454329819   15.72527533750223    4.87689899240362
C         1.78490701845352   15.61592778180758    2.79762709805235
H         0.74524845931344   15.87609609768524    2.90778425033616
P         3.06424924513066   12.35854715579940    4.52119525094927
C         1.73468303251336   12.29403416868407    5.75519740564402
C         0.61768447089727   13.11161942849601    5.63757944487787
H         0.53607115829014   13.78184713417325    4.79271361459728
C        -0.38457049850922   13.05597201102009    6.59000963600198
H        -1.25324450306496   13.68957869521627    6.49601235289838
C        -0.27446062722675   12.18455966482068    7.66149711662874
H        -1.05713172449352   12.14062118375438    8.40281759683224
C         0.83773711155036   11.36526951402162    7.78072963458172
H         0.92125424089546   10.68494282550490    8.61443082200775
C         1.84146710917339   11.41494254468868    6.83114687023723
H         2.70775767492556   10.77349205315958    6.91597458928845
C         4.50276555328303   12.98087801507302    5.43429158391798
C         5.67877082480323   13.01822975304391    4.67537376441737
C         6.86019852063470   13.45204027796365    5.24821098569605
H         7.77426395606754   13.47185907483762    4.67204513047467
C         6.86758871926008   13.86848755723770    6.57100621099328
H         7.79250651839654   14.20631319646770    7.01560584595194
C         5.69754087807897   13.86296388900586    7.32480630785033
C         4.50790039211284   13.41722908231282    6.74631164076725
H         3.60910645717682   13.41229388696639    7.34278895930678
C         3.49259193986217   10.60462462288643    4.32816076188511
C         2.54857355715782    9.86361877263830    3.61774788787382
C         2.73873886249513    8.50882833998363    3.39792315514184
H         2.00756257070645    7.93874053106283    2.84394058920733
C         3.86799186622470    7.88863051649500    3.89365140897723
H         4.03776271572710    6.83635140193420    3.73647657465293
C         4.81424546211786    8.61353742188268    4.61860083080371
C         4.62379880925715    9.97431621996462    4.83325393194527
H         5.35200378732404   10.53751523097889    5.40129981830164

