56
CSD_code = HUPMUB | q = 0 | S = 0 | Stoichiometry = C21H29MoN3O2 | MND = 8
Mo        8.57006331486244   12.59722365393227    4.06235631602907
N         7.76742364845910   11.60452022159111    2.40513123620295
N         6.93309689570099   12.52798286463412    2.84961314366393
C         7.13612922858646   10.80752296824846    1.54565233924546
C         5.82547713351607   11.27770806563597    1.41932472748929
C         5.73596782673109   12.36948711132967    2.28545045043807
C         7.79850422236594    9.59745777532535    0.94812200978822
C         7.85065352304638    8.51959104127552    2.04000569986615
C         7.00647228564915    9.08678638454372   -0.25691236578405
C         9.22804924863739    9.94794561049821    0.52379746621569
C         4.56068537502785   13.22717087501312    2.66684920304045
C         3.92117220707816   12.60394835108458    3.91585932848819
C         3.53907038241290   13.28720711526443    1.52972514036729
C         5.05093333442147   14.64038913254833    2.99926666175640
C         7.75686029533179   11.36709389716925    5.32360561445719
O         7.33715235636190   10.67158021589515    6.13845025870140
C        10.25881237294401   11.53685597634923    4.18747282921325
O        10.86827064582300   10.57130388840150    3.84149890734483
C        10.83450289613655   12.66510247347471    5.12261927865338
C         9.85646724259547   13.80075789726357    5.28415457603713
C         8.77805919151903   13.53141347904305    6.14920299851924
N         9.31661960266109   13.88991175369850    2.56143087923732
C        10.10869064996333   13.45910543936454    1.57613381991149
C        10.41141266124350   14.21676051240076    0.46036299958644
C         9.87877293280758   15.49229860907128    0.34301325423247
C         9.05879117679511   15.94848387083850    1.36646897390651
C         8.81170156152798   15.12243431050567    2.44474201916458
H         5.04913889593621   10.88031568260971    0.79820510698094
H         6.84588073967219    8.25601419601725    2.36342756846779
H         8.34343545352245    7.62551234566642    1.66510687922852
H         8.40440767603595    8.89316936182608    2.89971905683498
H         6.91867996896435    9.86264316985683   -1.01465836997231
H         6.00808705730502    8.77752930041540    0.04165124452027
H         7.51090550964465    8.22935357037116   -0.69692487423505
H         9.22734186390786   10.78709167870784   -0.17013689213405
H         9.81750955306099   10.20639438967834    1.39982601251906
H         9.69359435653994    9.09422202696688    0.03645612999429
H         3.08968657723846   13.21341789282773    4.26334918409785
H         4.65936115475432   12.52520506973582    4.71295633435267
H         3.55262006357556   11.60543410060428    3.69309460267672
H         3.13690159776291   12.29931715766090    1.32272931452689
H         2.71380115315938   13.94153831444951    1.80246077247732
H         4.00022485852759   13.66999959695013    0.62175219336721
H         5.54391649083930   15.08443073346466    2.13544403312865
H         5.75662757188745   14.60278809040547    3.83005297743827
H         4.21375729647847   15.27364307340603    3.28515251077547
H        11.07254013747784   12.18566209526278    6.08203967549283
H        11.76508297225804   13.00616647407906    4.65306534860607
H        10.20857150854675   14.82015913627693    5.10105464678779
H         8.13060421559919   14.36459107222036    6.41813261119089
H         8.91750518476822   12.82826869496340    6.96911690188011
H        10.51643836977272   12.46468791037227    1.69780672146785
H        11.05741934764615   13.81203210390329   -0.30272287636678
H        10.09766588545620   16.11250896911771   -0.51218408801488
H         8.61797231562115   16.93263183341007    1.32917102028081
H         8.17961001184595   15.45492846436653    3.26335848786008

