225
CSD_code = HUPMUA | q = 0 | S = 0 | Stoichiometry = C86H136P2Pt | MND = 4
Pt       -5.33689302473943   13.23323189450947    8.25239332545572
P        -5.27470639125159   15.17769838453185    9.43158737064253
C        -3.63025414297646   12.75192021702427    9.17810959931859
C        -2.60219064462933   12.53589671020194    9.78585835556290
C        -0.07011896095902   12.14434270121128   14.11504053205994
C         1.42151733474849   11.91629871528750   14.21016251113523
C         2.20920947978104   11.81273164329611   15.33537089217661
H         1.78640991802518   11.92699724329254   16.32373031260141
C         3.56556671427066   11.55315977404003   15.18357639244326
H         4.19528409641877   11.47333121950804   16.05844989475408
C         4.11947965928419   11.39379165814616   13.92325743406751
H         5.17514772684428   11.18308086817054   13.82818827604115
C         3.33504880158623   11.50012171295248   12.78587101528327
H         3.77036582010072   11.37458089434994   11.80507994644475
C         1.98331917925872   11.76470220585888   12.93263775389447
C         0.92909954444720   11.91824455000836   11.94642780895725
C         0.96681839448343   11.87975068201236   10.56114695646082
H         1.89631712850333   11.70368075528635   10.03841608012010
C        -0.20415453957064   12.07684450693534    9.85593748242802
H        -0.19572831313805   12.06169040234603    8.77520936094617
C        -1.41476188714981   12.30638677432591   10.51770532477028
C        -1.44822527503903   12.33612313448953   11.91912026795944
H        -2.38852243918409   12.51055314557565   12.42511689591991
C        -0.28236000905073   12.14606203778249   12.61926318930832
C        -0.82507128279982   10.98018215040863   14.78524827877393
H        -0.55904183080749   10.96703273884072   15.84516117935772
H        -1.90077029617262   11.15524748140581   14.71572888403027
C        -0.46906425633757    9.63200246324936   14.15766705853015
H         0.59270150419042    9.63824636356807   13.91350510352849
H        -1.02172406189972    9.49835499436636   13.22538775032677
C        -0.74925705263294    8.46475517921341   15.09905031101316
H        -0.22436718289153    8.63397432522471   16.04153315590438
H        -1.81822870533602    8.42677189674961   15.32536790375443
C        -0.32390864639881    7.11252728065805   14.52217687177147
H        -0.96394304902110    6.87309514458393   13.66910091500813
H        -0.49121432860856    6.34656596451710   15.28391389787402
C         1.13417421688173    7.04330894508348   14.05929422557953
H         1.34047030509418    6.01869721664285   13.73778854187410
H         1.27179205545269    7.68608161919605   13.18763285188652
C         2.14589779430618    7.43567865768027   15.13356823297561
H         2.01258005437866    6.79655641417821   16.00997600434298
H         1.97816540142581    8.46858236782032   15.44224211688297
C         3.58134395265064    7.31452468990955   14.62764071967481
H         3.77963540242463    6.28084569450301   14.33383371112600
H         3.69917069156442    7.94129068716975   13.74027676669161
C         4.59036406178045    7.74753004381815   15.68361118271402
H         4.42168999260389    8.78592654506468   15.95976227976196
H         5.60624269129112    7.65233198760795   15.30674980986773
H         4.49661939919088    7.13375159964137   16.57722876302347
C        -0.48527109032276   13.47657958921364   14.75949014032089
H        -1.57237064386941   13.57611042720313   14.70420430093831
H        -0.20767196361473   13.45613768646466   15.81609488353321
C         0.16609931988400   14.68441268096199   14.08989435894765
H        -0.18925272641190   14.76070427946319   13.05936281619970
H         1.24835578594183   14.54017998368468   14.05344506912076
C        -0.14762063391002   15.97988610220951   14.83384612619814
H        -1.22798183829129   16.06653516084708   14.97127479961027
H         0.30825277511873   15.94611032933134   15.82626625307725
C         0.36245718762372   17.20722968389662   14.08358439105210
H        -0.12022805023731   17.25433676557544   13.10421124537167
H         1.43712677994699   17.10601813052733   13.91522257146513
C         0.08901003000682   18.50275961621754   14.84334617437172
H        -0.98259150576974   18.58817374583903   15.03830691648110
H         0.59720075336146   18.46863132862137   15.80993259944766
C         0.55847572093998   19.73209687283573   14.06966588167671
H         1.63171935685961   19.65210595871101   13.88141976856706
H         0.05608269009121   19.76125395650414   13.09946023721276
C         0.27405390845066   21.02967442900215   14.82205085105730
H         0.77612892459490   21.00097993089598   15.79179995902005
H        -0.79959137450872   21.10979339538275   15.00878494417572
C         0.74540963680361   22.25227154240286   14.04432015483166
H         1.81737705766397   22.20049940798464   13.86616766431974
H         0.53309208245508   23.16450997272468   14.59707538872316
H         0.24212439484392   22.30925170221804   13.08137548496023
C        -3.99837346286881   16.22298205313156    8.61774716105866
H        -4.13501653730186   17.27992943876411    8.86265567865053
H        -3.02420525518252   15.89443419529006    8.99274123975266
C        -4.07076909508359   15.99624024429163    7.10774193745187
H        -5.01988133904518   16.37848221904270    6.72346581591492
H        -4.05137074720574   14.90759196707135    6.92016676011793
C        -2.91606613036459   16.65380976015785    6.35948008240779
H        -2.93982248842597   17.73350331091316    6.52928022329921
H        -1.96977935756508   16.27667002253318    6.75432452935614
C        -2.98940850767581   16.37239047834676    4.86386995811059
H        -2.94551657484226   15.30131021665046    4.67915414269651
H        -2.16182453445599   16.84659671239430    4.34169402537150
H        -3.92085731369420   16.75217688141237    4.44987092433972
C        -6.75899842037349   16.26423780986989    9.44973343668245
H        -6.51853285033176   17.22873195275686    9.90500853541061
H        -7.03238397930355   16.43281267684833    8.40409226964894
C        -7.91725574473365   15.57870858875440   10.16709982785733
H        -7.69211602912968   15.48158562850262   11.23225722728557
H        -8.02945091359227   14.57138787962342    9.75264029595700
C        -9.22761853207994   16.34170541124126    9.99440164315261
H        -9.11429389612438   17.35512573596538   10.38861502408461
H        -9.45326828714958   16.42384113075437    8.92901142333888
C       -10.38153795585935   15.64674597957855   10.70676704361975
H       -10.50867719704261   14.63540186305765   10.32643702169519
H       -11.31039017675934   16.19132283831172   10.55418114006012
H       -10.19132095965669   15.58521615850255   11.77642322536669
C        -4.73103036432175   15.09890218175114   11.18975061368946
H        -5.44099080116495   14.45625463642652   11.72067705848213
H        -3.77437132761762   14.56766612353425   11.16859515150372
C        -4.57931645967018   16.43441288966629   11.90952750520936
H        -5.55199719878126   16.91976291812852   12.01377298718651
H        -3.93244148910323   17.09651888677349   11.32997317185545
C        -3.97240288292864   16.24102153308883   13.29855459478332
H        -2.99270946154450   15.76857533633826   13.19909516955809
H        -4.60816600709273   15.56851335691707   13.87979222897543
C        -3.82645277259625   17.56551595253140   14.03740830703689
H        -3.16314683963488   18.23418093474100   13.49296775757635
H        -3.41481390733138   17.40691179541699   15.03155725513338
H        -4.79325767648409   18.05349470551280   14.14362607492401
P        -5.40057493262354   11.28745685343413    7.07513603885663
C        -6.67706358837443   10.24244309904456    7.88905168941038
H        -6.54048076650471    9.18550704983720    7.64412532214425
H        -7.65116210691041   10.57110844422360    7.51397846961594
C        -6.60471957964447   10.46918179814729    9.39905918779602
H        -5.65569312309753   10.08679594052159    9.78340645744253
H        -6.62394074691596   11.55785387420595    9.58660152032568
C        -7.75960224509731    9.81175580191508   10.14716731240773
H        -7.73596055022331    8.73206317481959    9.97734070683994
H        -8.70579425641937   10.18902356566702    9.75221452788823
C        -7.68638979470183   10.09312002634547   11.64279055044236
H        -7.73025875131254   11.16419586336324   11.82754206713642
H        -8.51405354126022    9.61892426963995   12.16484884325049
H        -6.75500368938568    9.71326971849659   12.05687526882010
C        -3.91616879500426   10.20109950835706    7.05720716975891
H        -4.15668371528071    9.23662357895703    6.60194363741763
H        -3.64278678092036   10.03256137035370    8.10285788686360
C        -2.75796149080998   10.88667078269784    6.33979281002307
H        -2.98315454228773   10.98383610606942    5.27465073140544
H        -2.64568393802573   11.89396946748021    6.75429142781226
C        -1.44766224101191   10.12355618540799    6.51238197575511
H        -1.56111811032609    9.11014663826233    6.11817785727902
H        -1.22193782689871   10.04140581927324    7.57775503351241
C        -0.29374671686537   10.81839859446353    5.79990295558541
H        -0.16645881153477   11.82972407234785    6.18023430592698
H         0.63505752353170   10.27370862848383    5.95238965673572
H        -0.48407068342170   10.87996270371984    4.73026703569871
C        -5.94411847054420   11.36670112619745    5.31697141999177
H        -5.23403734810512   12.00931354978104    4.78615045277626
H        -6.90074531099407   11.89800537385211    5.33807111759198
C        -6.09580000259225   10.03116667611547    4.59725300448932
H        -5.12313467722878    9.54576531800167    4.49308322551282
H        -6.74277118342429    9.36908912540238    5.17673649788571
C        -6.70257169154945   10.22472680951031    3.20819063882260
H        -7.68226671853732   10.69718848663374    3.30758411555100
H        -6.06672844012011   10.89725110753477    2.62705415835394
C        -6.84846359318653    8.90026002240683    2.46927441383109
H        -7.51179614851266    8.23154467687854    3.01362324704622
H        -7.26005993337611    9.05894521102489    1.47512355925825
H        -5.88165379128248    8.41228915013332    2.36305033418707
C        -7.04582764781149   13.71273767568748    7.32998458398995
C        -8.07257414742522   13.93036851759987    6.72055994606332
C        -9.26009945281432   14.15911237290001    5.98862944783873
C       -10.47080124896744   14.38841675463651    6.65032202343491
C       -11.64171881531730   14.58556655672620    5.94504206656045
C       -11.60384712742324   14.54737135907591    4.55975425622357
C       -12.65794813666308   14.70114759199023    3.57345683007979
C       -12.09601721241233   14.54972705428336    2.29596640972995
C       -10.60440383314305   14.32157406677676    2.39120790751655
C       -10.39231716242170   14.31968142545277    3.88700760850569
C        -9.22650477319135   14.12956102952919    4.58722331760175
H        -8.28614487324834   13.95534471731406    4.08127208806247
C        -9.84931450458232   15.48570855106142    1.72111635608654
H       -10.11547300290511   15.49909500308372    0.66123803386989
H        -8.77363671851901   15.31044734173766    1.79046490559899
C       -10.20501766322302   16.83383034372255    2.34897480495199
H       -11.26681009703560   16.82779920031339    2.59302865519503
H        -9.65241704471170   16.96710768598023    3.28134214132922
C        -9.92440095009091   18.00121657922558    1.40789050798336
H       -10.44905532032461   17.83226384506766    0.46522956013776
H        -8.85536298812939   18.03909425504950    1.18187150001872
C       -10.34973190115662   19.35338200826725    1.98491458736003
H        -9.70994810925555   19.59253320726291    2.83825709125347
H       -10.18205811704032   20.11948476207862    1.22340068967415
C       -11.80796113427331   19.42268952134767    2.44732459330490
H       -12.01429278514155   20.44730551639215    2.76879189800833
H       -11.94591015766238   18.77990330439920    3.31892513757259
C       -12.81936946022363   19.03042021743045    1.37271434670340
H       -12.68571657256366   19.66954597395006    0.49636039189516
H       -12.65162814902848   17.99750866348562    1.06407533082246
C       -14.25496466836132   19.15167104341247    1.87819043638703
H       -14.45320554002829   20.18531717608817    2.17214559573944
H       -14.37316785550383   18.52473801784003    2.76538673102087
C       -15.26370377546509   18.71902449895437    0.82180501388606
H       -15.09506422488651   17.68067407031595    0.54546093108424
H       -16.27968809402348   18.81425062822868    1.19837240287595
H       -15.16961266562159   19.33300164170581   -0.07163888718625
C       -10.18924305030883   12.98934026079747    1.74676220557364
H        -9.10216601909583   12.88970925441229    1.80231941157790
H       -10.46657720670793   13.00988088612341    0.69009095383842
C       -10.84088362842892   11.78153172639480    2.41613637070309
H       -10.48573043883576   11.70511434685539    3.44672763387090
H       -11.92313077315377   11.92588209748624    2.45239979071104
C       -10.52717207629703   10.48607783117372    1.67214908905231
H        -9.44680378386524   10.39936925119047    1.53480921335156
H       -10.98296181076071   10.51992288002206    0.67969295972474
C       -11.03740270382149    9.25875387030769    2.42233551693707
H       -10.55476727741863    9.21156432587720    3.40172931700292
H       -12.11207051345438    9.36006909828363    2.59065116412953
C       -10.76406737981906    7.96321257821660    1.66255725212005
H        -9.69244700316425    7.87759031978825    1.46779151152143
H       -11.27207656394074    7.99748294982134    0.69588021753288
C       -11.23393454785331    6.73395347632745    2.43611594556521
H       -12.30719175243832    6.81418673631169    2.62418145301941
H       -10.73171531331421    6.70466119330356    3.40640719324623
C       -10.94969314002804    5.43632028313572    1.68376289403376
H       -11.45162158541025    5.46512928039833    0.71394135662778
H        -9.87603930000700    5.35595970958915    1.49718643947028
C       -11.42143845136841    4.21383388337431    2.46142934651660
H       -12.49343216503315    4.26582124927373    2.63936041484691
H       -11.20918247021246    3.30153591417760    1.90874854156934
H       -10.91836118118594    4.15679415124758    3.42447936846124
C       -12.88358858912868   14.65355274907881    1.17069782158647
H       -12.46070699271288   14.53939389838130    0.18236104338408
C       -14.23993212853919   14.91325762089156    1.32239395523258
H       -14.86954114570676   14.99333643690901    0.44746569646992
C       -14.79395804833904   15.07249742346058    2.58267818857800
H       -15.84960136703941   15.28336460520119    2.67767162694566
C       -14.00965920301717   14.96586917200494    3.72012904346579
H       -14.44505911971114   15.09132219950622    4.70089496524628
H       -12.57127021286309   14.76152749626396    6.46771780104979
H       -10.47931412777380   14.40344972519367    7.73105348015266

