66
CSD_code = HUPNUB | q = 0 | S = 0 | Stoichiometry = C22H34IN6O2Rh | MND = 6
Rh        2.42811484000112    3.47825465305647    3.17848295938482
I         0.21385344056044    5.02123766100251    3.71713266119035
O         1.19755662966502    1.80252461242074    2.73023414850937
O         1.86016360372041    2.16282446353880    4.76773672177347
N         4.26242467064446    5.83026303087358    3.38805477898633
N         4.76174045291548    6.74905989357355    4.23770642285894
N         3.56512326411901    5.26151630893950    5.30973327308313
N         3.44089885868745    5.49254742107287    1.21239084306016
N         3.14933650887438    6.11693266268186    0.05418385160431
N         1.72659014728716    4.49993167600878    0.45025062460231
C         4.57040211108593    5.90496145530959    1.98999099576127
H         5.43377322934852    5.26048135176399    1.76351123354687
H         4.81158191311140    6.94250789499481    1.73759352662726
C         3.51644253780786    4.89699518510186    4.00272678601882
C         4.32675967207640    6.38082863107971    5.39804834785577
H         4.53042736502213    6.90180599206364    6.31057950256744
C         2.98665639824168    4.55987221669557    6.42805221112023
H         2.02054302343686    4.15239203726702    6.12133579333080
H         2.83525872468841    5.28011669939564    7.23566673747885
C         3.88975501250309    3.41206647868552    6.88173560314540
H         3.36876729068065    2.86931263786145    7.67104019660358
H         4.02278441402242    2.72736140805048    6.04241597245905
C         5.25040382593220    3.87874509207668    7.39191373672992
H         5.11102831797584    4.55178916221944    8.24207059936751
H         5.77240338181767    4.43546999579504    6.60846506108143
C         6.11452138789337    2.69787576152553    7.81704521320703
H         7.08191836408112    3.04014161483162    8.17687820624429
H         6.27757187370006    2.02608261177773    6.97726570967117
H         5.62950044937864    2.13815608412316    8.61334486654536
C         2.59223968245776    4.48943630931210    1.49732588331297
C         2.10668266937707    5.49566356655739   -0.38995644579525
H         1.59919707439838    5.74368995978328   -1.29894299041382
C         0.61137338807452    3.61327069037285    0.22718279839515
H         0.36855749413798    3.12353463499839    1.17198045953491
H        -0.24105313495728    4.21498886171417   -0.09546765749961
C         0.95976971272455    2.54419552196390   -0.80940246941809
H         1.91836375047964    2.09989145842264   -0.53295850616685
H         1.06681152719258    2.99951683865320   -1.79791292914196
C        -0.09250961930100    1.43821283934792   -0.85537577197983
H         0.25882976362975    0.65709211896320   -1.53326796549989
H        -0.18158298709162    1.00090091864315    0.14032196332058
C        -1.45750558309809    1.92751740959271   -1.32409131943737
H        -2.13645950755375    1.08633271080947   -1.44017237862834
H        -1.37483906102857    2.43276742679366   -2.28461298309435
H        -1.89566172545717    2.61506147396206   -0.60564852715309
C         1.15668500804322    1.51223430990925    3.95456559726137
C         0.25201412111173    0.40958736466314    4.44073627199225
H         0.20198032111152   -0.38337701422633    3.69977313509073
H        -0.74676409873177    0.82115773868444    4.57827681082350
H         0.61037242924640    0.02826179121482    5.39239513275565
C         4.07668281323449    2.20202195506786    2.91947664255491
H         3.98390146977192    1.55100678994877    3.80379888140515
C         4.14420671728006    1.30613364803607    1.67019116007430
H         3.22993103370280    0.78183436873158    1.40085731931063
C         4.75240065476428    2.20902499688558    0.59085726454720
H         5.05265670745494    1.64549974858838   -0.29429994062074
H         4.09502345070290    3.02054161257739    0.28129561991813
C         5.35138456791823    0.41726169803443    2.01421910352846
H         5.17538608145310   -0.22072522211175    2.88089026222063
H         5.66880097122562   -0.20523902202942    1.17620931903582
C         5.50597261940051    2.69920230823257    2.84298662563649
H         5.92321672115979    3.38044545658071    3.57074675018571
C         5.93861447321790    2.68619618585890    1.40046326358538
H         6.66775421307878    3.36834892832126    0.98981421682438
C         6.32175827903152    1.54483884681810    2.30144340094887
H         7.33850629256344    1.35481607654710    2.60581541816896

