51
CSD_code = HUPNIQ | q = 0 | S = 0 | Stoichiometry = C18H27N3O2W | MND = 8
W         3.16504810865285    6.85904514813489    8.28968847104681
N         3.48503548997164    6.32356172800726   10.44707713825307
N         5.01210365168579    7.36997164608657    9.31911451706388
C         4.61662049823151    6.99049169667303   10.52535502697280
C         2.72824095240128    5.97103926633336   11.62905416130845
C         2.02247632719944    4.62590305663606   11.46208579952683
C         1.69892749562289    7.07259499707933   11.90861475333917
C         5.35763520309565    7.26119321605450   11.81348171587842
H         6.32447341778161    7.71702446762978   11.62709986836236
H         5.51517656364418    6.32891254931847   12.35407620146113
H         4.77633466989514    7.93014034505025   12.44568033236147
C         6.04650061201927    8.35528417596143    9.10079928245500
C         6.53368217869953    8.27992526140483    7.65306837325670
C         5.50978861601774    9.76267670352481    9.39737742860513
C         1.23392564710887    6.28499044503300    8.33811054810860
O         0.25093868168349    6.04232007044552    8.97898744799801
C         2.38602230985068    8.60715933202133    8.73552612065556
O         1.82447631602395    9.59947733253405    8.91187532877322
C         1.30319571542838    6.14324643649047    6.76141991981336
C         2.63377252301249    6.57969151868047    6.19235616799928
C         2.89893851597836    7.95853581789232    6.24449751416798
N         3.99713814172351    4.93468380955256    7.98202238751949
C         3.36584408185262    3.83683944866629    8.40147775132765
C         3.95374411728022    2.58549232725380    8.42537332660276
C         5.26202543353591    2.44538770858372    7.98647974993764
C         5.91668218246116    3.58050674166223    7.52936810970283
C         5.24868997704720    4.79031363704096    7.54117835095302
H         3.40399169597404    5.88999253486211   12.49347259589363
H         1.27039030275897    4.69981690842267   10.68331315459164
H         1.52853392533445    4.35384595538979   12.39195430209770
H         2.73968527508646    3.84783064563611   11.20876795325805
H         1.14298877644326    6.85267045448675   12.81667472225165
H         1.00655137543366    7.13492979032975   11.07299754915475
H         2.19298979788824    8.03585200293205   12.01980277385602
H         6.90980831123051    8.15860949090734    9.75698531781183
H         7.17242488680270    9.13048781298200    7.42705305247309
H         5.67601582343442    8.29914829008422    6.98283876139157
H         7.10828466557363    7.37108686153464    7.48403417132155
H         6.28845499873965   10.50843391173348    9.25517573446367
H         5.14750869820001    9.82356061502322   10.42057046955298
H         4.68107410276797    9.98131172632139    8.72741216881878
H         0.48762795646792    6.77842981654757    6.39059819474836
H         1.08146973859602    5.09730325472211    6.51781555619011
H         3.15056847547601    5.91623135891341    5.49317220725104
H         3.75958185372912    8.33323378575427    5.69759568853533
H         2.06831851658199    8.65976202489939    6.26149837765964
H         2.34508335643898    3.97165849075328    8.72975217450318
H         3.39218397477453    1.73477096772880    8.77925838900549
H         5.75186364161775    1.48373330007871    7.98981277389430
H         6.93122166621274    3.52749082659613    7.16509283172361
H         5.72944075652878    5.68950028961086    7.17550528610742

