33
CSD_code = HUPNAH | q = 0 | S = 0 | Stoichiometry = C11H17NbS4 | MND = 9
Nb        1.74768949352515    9.58238658976784    5.38745080877743
S         2.37712185308119   11.08497974135234    7.17320526243406
S         1.18132341245500   11.63048179521574    4.15552327238497
C         2.53059800301949   12.79387907189705    4.55230429278503
H         3.44992016699045   12.20349112774964    4.61835357841367
H         2.60515478164396   13.48183062637031    3.71066493529235
C         2.26030148501932   13.55323103584112    5.85220728810145
H         3.21249203777736   13.91785558297516    6.24319777043708
H         1.61576797385122   14.41063201759674    5.64624361394363
C         1.56556422894453   12.70106148267565    6.90850327548879
H         0.53317547260760   12.49658968275212    6.61505244882374
H         1.57900310957998   13.20314876950916    7.87583325858145
S         3.42120558871438    9.56939207912165    3.64402526803831
S         3.34741871455489    8.21202839835610    6.65081942710221
C         4.53827890114621    8.14920588489877    3.91804016820306
H         3.91030832485944    7.29499372807192    4.18228422808223
H         5.02370272744216    7.96263864967126    2.96008724035102
C         4.97363212076489    8.95858253368170    6.29529147611041
H         4.81976596731858   10.04058620774738    6.23335082394363
H         5.61367195711788    8.73487086110528    7.14821168816581
C         5.57790024700264    8.40522736082614    5.00387725466070
H         6.07535881454563    7.45551459826010    5.21260495181394
H         6.32154793743833    9.11668607699329    4.63873117885997
C        -0.58465399279575    9.19730914910894    6.04778770026156
H        -1.15478439929330    9.87530647999499    6.67072901735685
C        -0.55705312995768    9.19828920065802    4.63460295571443
H        -1.10246784989245    9.87725638457318    3.99231934961233
C         0.18383917131522    8.07515127202942    4.20611463303930
H         0.30649179400009    7.75404144603180    3.17938543923558
C         0.62243264371755    7.38965354333221    5.34954579015342
H         1.14817789381867    6.44385648305388    5.36913994906872
C         0.15141465732246    8.08707627070949    6.49110356148257
H         0.25569989236523    7.75436586807170    7.51590809328034

