31
CSD_code = HUPNIP | q = 0 | S = 0 | Stoichiometry = C10H15Cl2NbOS2 | MND = 10
Nb        2.53993226984684    6.01036200197984    4.91831991769533
Cl        2.79032837147487    5.84164733165513    7.30406212098880
Cl        0.97580418826591    6.14543430692991    3.13134329300343
O         0.17746684699823    6.00546225544367    5.88742353370462
S         1.98551547220130    8.39339813420047    5.36410277649918
S         1.85721337056557    3.61739704912797    5.06615760176002
C         0.20437558766825    8.34984640245430    5.73386793087344
H        -0.05165307880228    9.29566276818827    6.20951718757254
H        -0.31748796619252    8.24608449990075    4.77868847108470
C        -0.12308307354089    7.17119875101970    6.63486847865620
H         0.47840495192899    7.20478127929519    7.55630428861952
H        -1.19314016277961    7.17088789798040    6.89127550633428
C        -0.18413042851527    4.77454112592291    6.48943962819514
H        -1.25277473938503    4.79899239976551    6.75024696104688
H         0.41502129730555    4.59788908372755    7.39593762030672
C         0.08192079995438    3.69919283864536    5.44956789078718
H        -0.43584567904255    3.94349832664821    4.51802644786119
H        -0.21924485942695    2.71623594214919    5.80930518403189
C         4.83027845904154    5.06707939129032    4.80735996656069
C         4.28058689224432    4.99602852511614    3.49450191949534
H         4.13524574049860    4.08547967029673    2.92736579569356
C         4.10966009334790    6.30880382317734    3.01216671711865
H         3.80036395260514    6.58251452801179    2.01284307968979
C         4.53283944216267    7.20202574987827    4.02074394431883
H         4.61184413396440    8.27688009274035    3.92625861330424
C         4.97855038310304    6.43450878565490    5.12334619575186
H         5.45047874295835    6.82874028630547    6.01379042958696
C         5.28525373354068    3.90943823667098    5.63371738098365
H         6.33300103622426    3.68771525087842    5.42208968072375
H         4.68969871062073    3.02459394192619    5.40941194860621
H         5.18927551116322    4.13767932301875    6.69504948914603

