30
CSD_code = HUPPEO | q = 0 | S = 0 | Stoichiometry = C11H11N2O3ReS2 | MND = 6
C         2.69343897853593    8.63844663117335    2.31292534997886
C         5.10261908839057    8.63915529170892    0.76106131858410
C         2.61107423068563    9.26320786104279   -0.45999682710166
C         2.08040314468128    5.95176650011958   -1.28891473704946
C         0.18008100637629    4.60891435886234   -2.01203097545087
H         0.19895429960987    3.51780291671692   -2.06273165968532
H        -0.46564812182775    4.98860317105438   -2.80799733925893
H        -0.22610992474490    4.91587863854794   -1.05069919256420
C         2.20344825867524    4.67988270525208   -3.35999119387133
H         3.09672584584170    5.27975081374577   -3.52177477247974
H         1.54053194751828    4.78530384748807   -4.22026858439747
H         2.49389602314592    3.62990032543111   -3.26383391759867
C         5.06689403351096    5.38403424259493    1.24936504434913
H         5.71515386233716    5.90977824898419    0.55885157020618
C         5.40133026352536    4.11539354418874    1.68776224591415
H         6.31018586604656    3.65186772565807    1.33826797423047
C         4.55357671837365    3.46319080998227    2.56826951536330
H         4.78046312575006    2.46990186027695    2.92475219721954
C         3.40864899629794    4.12460484232695    2.98196874197279
H         2.71691942997136    3.66862225537113    3.67233214224511
C         3.15223700588851    5.39264291411694    2.49247690011367
H         2.26106728567584    5.92542179891210    2.80138929291882
N         1.51753986714089    5.12309207670260   -2.17159809672173
N         3.95616794649742    6.01669093846181    1.63022902483706
O         2.26878588224101    9.08268842934230    3.28224164370074
O         6.16176294568892    9.08082261717246    0.77557822214357
O         2.13631114817767    9.99735129170122   -1.19518921728775
Re        3.33190226505323    7.83808639167214    0.65741648527119
S         1.23476576877602    6.49135092959375    0.08941691981559
S         3.68397281216410    6.49514602180064   -1.48577807539767

