28
CSD_code = HUPPOY | q = 0 | S = 0 | Stoichiometry = C9H10N3O3ReS2 | MND = 6
C         7.47544786628419    9.92340517603819    9.64384727746667
C         9.06281321055319    8.40289620071472    7.78543151556655
C         8.66997734333391    7.47096624543719   10.44155511870926
C        11.21551321052425   11.02079665941076    8.10332286737375
H        11.66727601537919   10.19542359902895    7.58624693872193
C         9.92815309032359   12.19979892670775    9.35076418335651
H         9.12546423995273   12.40464269200231   10.03222399776268
C        10.83344432839595   13.05587321024408    8.80125414844987
H        10.96192054945261   14.11230682610267    8.90957349216156
C        11.49589759028040    9.07607291870272   11.55182987550153
C        12.37389647020776    9.60112059792329   13.76396294694877
H        11.42460611230044   10.12223880247346   13.86332792382357
H        13.19077588064901   10.31052557742680   13.91733798985239
H        12.43552045417396    8.82289052129656   14.52872670894754
C        13.70669742105350    8.29127640744306   12.21529820256206
H        13.82721240277050    7.50736725247298   12.96683659920295
H        14.55769882016990    8.97412531956407   12.28025216594097
H        13.68783188559666    7.83665046409006   11.22752383393498
N        10.18065551281454   10.93654541396791    8.90635871423775
N        11.64350301904024   12.29233748942119    8.01104830462195
H        12.41724661427451   12.62180727447232    7.45715445308300
N        12.48060636201434    9.01106838280439   12.45290415458729
O         6.44424214916271   10.41957422284312    9.73390576604518
O         9.01063349638521    7.96585588701571    6.72427706222177
O         8.43992725698492    6.51534987537864   11.02557063948650
Re        9.24671563633963    9.11936746737328    9.58448454391714
S        10.04653412512642    9.90935445730587   11.88175959052561
S        11.65548893645429    8.35476213233883   10.01342098499080

