41
CSD_code = HUPQEP | q = 0 | S = 0 | Stoichiometry = C12H18N4O3PReS2 | MND = 6
C         3.72898908765603    2.83305890992443    1.07931762501018
C         2.42636336049814    0.29860840541532    1.24397976472607
C         1.89608891743690    1.98176761131769   -0.99202592634061
C        -0.17207909008523    1.65173576704814    3.03070905059428
C        -0.82284486807653    1.55284324513898    5.37338961443749
H         0.23814462420985    1.72951857441542    5.53480393645092
H        -1.11837455161544    0.64263031078635    5.89814021957029
H        -1.39074990578656    2.39447822303915    5.77864473665206
C        -2.42166746878995    0.94707367369199    3.64555039867738
H        -2.55496674090505    0.90523260266650    2.56712026931758
H        -3.15709949972373    1.63162498562521    4.07414385959456
H        -2.58421393237564   -0.04977974592851    4.06177013243261
C        -0.19514264635134    4.97638867774817    2.27539172034664
H        -1.02579219056557    4.28214390699541    2.45871291962989
H         0.40986769692178    5.04167206435968    3.18865206106563
C        -0.33967194248643    4.65656320093403   -0.48544627145813
H         0.17240331652478    4.49911977045277   -1.44286951996352
H        -1.16910093545365    3.94113260093819   -0.42012535981325
C         1.89261182851384    5.85096286108440    0.66543521003078
H         2.58021770454314    5.94720247665486    1.51479136504716
H         2.49217718486354    5.73600295883542   -0.24612747972992
C         0.30763899917231    7.27239533497468    1.77125273450674
H         0.97644830139323    7.26618124045338    2.63627136331354
H        -0.16808249504441    8.25508207963748    1.69421293204351
C        -1.59271733139899    6.25331094547517    0.79430762934012
H        -2.08480040897390    7.22734183100107    0.71002752907137
H        -2.35439617267766    5.47895069806412    0.92286463693773
C         0.18675485721986    6.99889937143710   -0.57635454890268
H        -0.28623486280494    7.98057023640128   -0.67948961025403
H         0.76551756335875    6.78367710141211   -1.47824857908531
N        -1.09131551098271    1.40291904630038    3.96446987751709
N         1.08611272911328    7.04988084701767    0.56510081971151
N        -0.73905035226526    6.28212078298930    1.97189903956688
N        -0.86552800751358    6.00475089154843   -0.43826743769649
O         4.78338386586386    3.26432634456661    1.21111148319848
O         2.64380595623231   -0.79298729492515    1.49540603001392
O         1.83389927038745    1.88055772239911   -2.13319802942361
P         0.86155760392215    4.32287619830582    0.89073250552587
Re        1.90682419038709    2.15285439612501    0.94963316511264
S         1.38363355424491    2.21819784775350    3.44536238788276
S        -0.51091169858350    1.44151329791930    1.36854774534327

