38
CSD_code = HUPQOZ | q = 0 | S = 0 | Stoichiometry = C13H17N2O3ReS2 | MND = 6
C         0.87482175978987    1.58028599794628    3.91515076959884
C         3.32208931609536    1.49922146542381    5.50083643994240
C         3.45466688841219    1.60010168748311    2.62039021546245
C         3.60125991291106    4.99671340063863    2.54833565023017
C         3.29439452945712    6.73023534915272    0.86418573981314
H         2.32431921389789    6.25330059685797    0.74768577578429
H         3.83269142658646    6.68064720778533   -0.08516715434572
H         3.14771244745871    7.77919756638023    1.13185861974327
C         5.35609969242609    6.63742197682751    2.14110304409748
H         5.86534799176946    6.08576976584864    2.92749486455254
H         5.25166283482413    7.68125258871398    2.44646421633199
H         5.95660531259489    6.59710288604694    1.22928605511343
C         1.82231581278056    3.98954872145783    5.29234723906162
C         1.20553277999693    6.15198021859025    6.51126989814357
H         0.52518170362931    5.89507113375096    7.33425431574082
C         2.48845314321461    6.78075933802800    7.07208696881463
H         2.99471597087395    6.06077555342422    7.71831477545169
H         2.20430717623719    7.64366882003753    7.67768582531341
C         3.41989287638785    7.21987632530085    5.94615342612143
H         4.30689806112050    7.69145087272825    6.37268564992260
H         3.75169078399369    6.34244139808146    5.38664352750353
C         2.70843826736922    8.19013589528006    5.00799715070387
H         3.38274754468707    8.48645016561951    4.20194117137239
H         2.43211359738707    9.09281940336639    5.55904314680607
C         1.45310060817354    7.54811628836223    4.42519315104613
H         0.93918679383971    8.25230628090696    3.76807335307702
H         1.72823968525040    6.67843421450387    3.82509475381406
C         0.50583529404425    7.11074218056562    5.53853120009181
H         0.17116820753819    7.98179228802020    6.10530312005752
H        -0.37255316521083    6.62161086427956    5.11236232314586
N         4.05434482192147    6.06843307749248    1.89559953658911
N         1.51913384767304    4.95807281925762    5.85338047517416
O        -0.12349772270214    1.03268702969329    3.77737632755907
O         3.82392953532754    0.90490981001527    6.34399919766619
O         4.02750715563747    1.18548732647953    1.72844448263965
Re        2.55195342731478    2.57104570169454    4.06113794071632
S         2.06029285687809    4.33944710216345    2.20785078419977
S         4.53069961040682    4.24798668177770    3.77240602295011

