83
CSD_code = HUPTET | q = 0 | S = 0 | Stoichiometry = C39H32F4IrN7 | MND = 6
C         2.30510898458208    1.51760316267324    3.83493280549126
C         1.66561241029469    1.28884947028655    5.05274708252701
H         2.20875994600206    1.21552716779070    5.98149554975414
C         0.29055637888739    1.14930936391742    5.06388067552767
C         0.10620771143885    1.43311022071508    2.85076992635286
C         1.48081804047419    1.58239649056334    2.67807420149699
C         2.19094359486964    1.79677116094540    1.42530030608556
C         1.61092784343500    1.86080049266610    0.15853282715074
H         0.54449963539044    1.77154169127589    0.04454631610742
C         2.41264549258204    2.04043322645277   -0.95279781211274
H         1.97499321472495    2.09780432481786   -1.93717772784313
C         3.78644093053993    2.13293612695156   -0.78006606406086
H         4.44962695446960    2.25569376999390   -1.62129944699762
C         4.29599573615739    2.06338234857510    0.50221118214844
H         5.35970839908913    2.11878503162148    0.68381768319142
C         4.76028682016630    0.03362208279428    3.58887279241113
C         4.67794234983794   -0.97432831462855    2.62883343068668
H         4.17711122851392   -0.82861079628990    1.68495703882396
C         5.25632071798303   -2.19950958973010    2.90223539225807
C         5.97833152440208   -1.56208328313005    4.92332864161950
C         5.43659753211553   -0.28433199568295    4.79858489955410
C         5.47736693437970    0.78746143456787    5.78314105854840
C         6.04884436860262    0.70824562217802    7.05293320167476
H         6.53427540676829   -0.19690109294026    7.37431476721370
C         5.99014297795325    1.79948243830535    7.89897419192493
H         6.43405882359048    1.75232947041664    8.88109885885338
C         5.34172573367005    2.94791131305365    7.46725478895433
H         5.25804687951530    3.81577189264083    8.10159118919340
C         4.79828306768298    2.96040547219045    6.19713382388328
H         4.27423533772996    3.82810605471669    5.82293132112995
C         5.49499013749716    4.13998611197832    3.00966119520696
C         6.53194118780117    5.84042925597513    1.51354737957310
C         6.26363405458672    5.30945833636895    0.26085094479746
H         5.72483670413359    4.37939833492327    0.15439339839617
C         6.70649858864836    6.01223549379813   -0.84294071157908
H         6.51127768297314    5.62261867266012   -1.83135589557516
C         7.39918953376229    7.21362991250675   -0.70833290704038
H         7.72907281262348    7.73281082408688   -1.59568204150989
C         7.66655833097398    7.74677305220649    0.53691231647124
H         8.20157041476969    8.67892732018164    0.63798528771442
C         7.23198766239369    7.06040083004042    1.66316598955905
C         7.32279173535930    7.30475326557160    3.07522290752466
C         7.88534913552240    8.31547951585361    3.84354915236852
H         8.38604390464460    9.14672737373777    3.37057581804818
C         7.79155946623378    8.23292682647990    5.21859591243760
H         8.22286648898757    9.00917905189642    5.83274603328781
C         7.14871928525379    7.16014392392767    5.83274941842184
H         7.09413993209310    7.12377312345769    6.91098048646104
C         6.58054164715558    6.14195172623641    5.09188680846754
H         6.08457311078829    5.30996515335312    5.56991760449296
C         6.67062098871993    6.22210403405966    3.71037354170911
C         3.38308190255576    5.29789666620181    3.21804505545703
H         3.97996390896740    6.20125391287324    3.42281418339455
C         2.78863575916157    5.42673269422062    1.80920446403520
H         2.14179433222884    4.57778068481867    1.59714697631830
H         3.57952815911545    5.46111187412030    1.06215320152949
H         2.20289128627933    6.33940151086399    1.73263169099887
C         2.26165306908957    5.20775080820867    4.25217439495335
H         1.73375615118949    4.26279220780330    4.14447486980989
H         1.55799836876223    6.02390728123132    4.11106746064796
H         2.65715901879522    5.27108203627484    5.26351595953547
C         7.50853106130847    2.81271547397935    2.83949035555570
H         7.93310422288395    3.66209789936475    2.28055850209022
C         8.16273488608509    2.77877754363371    4.22718346969970
H         9.24383163103964    2.71858616559285    4.12958173515792
H         7.81352379307005    1.91170450003060    4.78414915294848
H         7.91683547417268    3.67888861688145    4.78769376312523
C         7.82207192130814    1.52310501520696    2.08194564194956
H         7.50472350902060    1.59340700105053    1.04382627977108
H         7.30646739479696    0.68577771189786    2.54711753593835
H         8.89189538335897    1.33235136201876    2.09756015917721
F        -0.73528213629626    1.50893668908927    1.80803666704658
F        -0.34221301396701    0.92942347503287    6.22123654137197
F         5.18861518885021   -3.17963961532868    1.99504171900139
F         6.65296075697448   -1.92398202322362    6.02562784381167
Ir        4.22734547730557    1.96592623572773    3.46371388573999
N         6.19945389907458    5.34805549911990    2.75604693917469
N         4.21827697902748    4.12394091610397    3.30625209480254
N         6.07869766139788    2.96723241037057    2.96200291419404
N         3.53137186408286    1.91933487501061    1.58098271590061
N        -0.48335692678058    1.22444364654551    4.00187787641740
N         5.89934384029901   -2.49887590865452    4.01099264798619
N         4.87342739607053    1.92589593692675    5.36449776167783

