111
CSD_code = HUPWUM | q = 0 | S = 0 | Stoichiometry = C47H55CoN4O4 | MND = 6
Co        0.39699467428868    2.61232918288570    4.56382500141616
O         1.31712069617286    2.67458473953560    3.02850522930459
N         1.83185842517602    1.60268873041256    5.28396076603435
C         1.61300419122630    3.90891460748041    2.73700345662571
O         1.20462662982883    4.23084372812525    4.97117319203487
N         2.33418277779888    0.62308593767136    4.64280038550748
C         1.59429724425561    4.79230633713757    3.86960856748946
O        -0.95745156145704    3.55833414527721    3.75582933668619
N         0.35976947863807    0.05036705139163    3.50259645202523
C         2.04988459667441    6.12784986545521    3.75801766282600
O        -0.56285789385301    2.75397756237187    6.07175011275268
N        -0.35894369262843    0.96645260807587    4.01199749845175
C         2.42473645990449    6.53088096643961    2.49670285438790
H         2.74716040486848    7.54606495847085    2.33066230988112
C         2.40253295456240    5.67880671326399    1.38319411145829
H         2.70370134434499    6.09756596396324    0.43673843449519
C         2.02122662094379    4.35852431252603    1.46038835455713
C         2.06899521684087    7.02139540208343    4.98578334663350
C         2.59560417204942    8.42503961098938    4.67580221696977
H         2.60350528987960    9.01562856353045    5.58957075988574
H         1.95993149783958    8.93175296660365    3.95326883559957
H         3.61192468388187    8.38513083701581    4.29073560069093
C         0.64490191306284    7.14494449702376    5.54424254160392
H         0.64540377967295    7.76909815500596    6.43557330046442
H         0.24977929588173    6.16862068146372    5.80801120727116
H        -0.01628804803318    7.59592432923919    4.80684113976788
C         2.97918170491534    6.37898412787177    6.04272710008830
H         3.01204044020325    6.99889746240690    6.93622546339275
H         3.99106876175934    6.27075194278727    5.65664708074786
H         2.60818640253287    5.39627677387069    6.31830205572221
C         1.97942142653336    3.40294813946952    0.28137801290826
C         2.40162712076775    4.07438292579638   -1.02775530448316
H         2.34774104745673    3.34925659329029   -1.83710348646240
H         3.42498083980552    4.43789797021019   -0.96863539147523
H         1.74213328822194    4.90379755157237   -1.27268060441193
C         0.54441397204863    2.88092816778029    0.12387348377585
H         0.49322667505672    2.16536910432174   -0.69434354785369
H        -0.13599946527632    3.70380200615714   -0.08738232711460
H         0.21742616490918    2.39049934926810    1.03615361799847
C         2.93012745214710    2.22958382244401    0.55934708694049
H         2.91285938234634    1.52636121976555   -0.27071605800158
H         2.63382276897093    1.70183226815848    1.46109481963116
H         3.94893141568263    2.59094020759266    0.68698112231705
C        -1.61831738013511    4.21943473000327    4.65150663684807
C        -1.35399585436374    3.79323491890674    5.99869722587450
C        -2.02258564797765    4.40782768398959    7.08600549932666
C        -2.92849489937320    5.39314120002322    6.76139338170445
H        -3.45489148225477    5.91339583892555    7.54452224413011
C        -3.21718774063210    5.76956815248034    5.44398336651331
H        -3.95291241962661    6.54438047288021    5.30240913312325
C        -2.59271198922828    5.20285921727244    4.35803681456497
C        -1.66095521156341    4.05892260080557    8.51961081182809
C        -2.58043509183611    4.73112961076881    9.54419019759844
H        -2.29840513449969    4.40538744046467   10.54342726024637
H        -3.61926464764402    4.45476661198383    9.37823912752229
H        -2.48996399172021    5.81398089882955    9.50970207851790
C        -0.22645628651881    4.55365973670559    8.75451726929931
H         0.13302591596317    4.23059190379079    9.72931840609557
H        -0.19789264382001    5.64102825250554    8.71711397614560
H         0.44098579769610    4.17251943237769    7.98811327140977
C        -1.75186323500393    2.54291500840840    8.73315772916543
H        -1.44392606907245    2.28731166740818    9.74527953668926
H        -1.11485440872808    2.01552881303867    8.03086114313832
H        -2.77748735005248    2.20685251604912    8.58946578846760
C        -2.87976864893005    5.57478363921458    2.91411962633561
C        -1.59287953328863    6.08357138397287    2.25096142329974
H        -1.78429567538113    6.34136696926473    1.21117281925539
H        -0.81872572289170    5.32288040157624    2.27967521442765
H        -1.22353129926720    6.96934578971517    2.76396104249714
C        -3.95072192027936    6.66245677738909    2.79693058598186
H        -4.12124177080508    6.88712790341263    1.74605960370947
H        -3.63424609898694    7.57875501016287    3.29003396908638
H        -4.89274121775404    6.33177609050137    3.22814615268882
C        -3.37375498229183    4.31986414822764    2.17973764881588
H        -3.60121211730055    4.55752812847794    1.14260431924265
H        -4.27297985730607    3.93121047387357    2.65427142497604
H        -2.61350820501292    3.54486971950171    2.19934613748795
C         2.68513869600618    2.15176894703530    6.25811853926273
C         2.23363655628385    2.34778708512331    7.55802062387754
H         1.23324222731638    2.04206942573182    7.81643990411887
C         3.07797956738356    2.90857620539371    8.49821418200959
H         2.72721870271427    3.05962200079063    9.50807668780550
C         4.36862958848210    3.27366494492746    8.15192262148712
H         5.02035093557021    3.72042101678782    8.88760941351521
C         4.82374558831265    3.06044944291438    6.86067571941028
H         5.83106776390748    3.33877575188457    6.58840997518434
C         3.99213763689313    2.49315461376441    5.91500954201524
H         4.32680257000945    2.32928851476525    4.90127398767276
C         1.66532217717530   -0.06107138238354    3.72253858015247
C         2.39141646264167   -1.09184927366409    2.98303601384159
C         3.75690243379086   -1.28114200214635    3.19189563132082
H         4.26219135898230   -0.67211827952792    3.92521024990300
C         4.44627718157409   -2.23715653099131    2.47162952258792
H         5.50402594478327   -2.37796580130362    2.64071662228710
C         3.78719842496881   -3.01467582094413    1.53284275773811
H         4.32895420313428   -3.76032321881780    0.96968984053637
C         2.43044715990029   -2.83112059683133    1.31890349124262
H         1.91387318130441   -3.43594016320998    0.58765613727818
C         1.73521349965575   -1.87699752740566    2.03598284763202
H         0.67853724488846   -1.72946051087474    1.87675994412280
C        -1.73051514765914    0.85638765801387    3.72799698917088
C        -2.13344942689842    0.51196371974073    2.43698074678411
H        -1.37822184936273    0.32503533319941    1.68885969830682
C        -3.47705021147222    0.44957647052620    2.12599554252086
H        -3.78126992259152    0.19856451821479    1.12078973971776
C        -4.43128674508161    0.71574229368740    3.09470518891467
H        -5.48126102049206    0.67396536271194    2.84681232292868
C        -4.03328778483197    1.03130032909887    4.38373955721258
H        -4.77305617236737    1.22448144411305    5.14643468601062
C        -2.69144998593363    1.09697796990875    4.70697060159149
H        -2.38285456900617    1.32015283062564    5.71551542728203

