127
CSD_code = HUQBAX | q = 0 | S = 0 | Stoichiometry = C54H66BrLaN4O | MND = 6
C        -0.77997439600273    2.69753376528869   13.88798044930619
C        -1.79130677838611    2.71095619175746   14.85880527536786
C        -2.94091179593007    3.44796231826274   14.62147521011835
H        -3.72933932342809    3.46281167052407   15.35789280978081
C        -3.09082939930630    4.17426912120204   13.45520852615527
H        -3.98239836101479    4.76218899499356   13.29439089548574
C        -2.10834808216882    4.12708546076640   12.48525990773228
H        -2.24588862737579    4.67773025901239   11.56693524405291
C        -0.95487097562392    3.38081982118990   12.67306457309152
C        -2.15031794530646    2.54445197937548   17.36900350295265
H        -1.92044895357199    1.92224147447423   18.23205081246450
H        -3.22764337982926    2.68607799399416   17.34020709696248
H        -1.67668900871648    3.51592507379005   17.50006415584886
C        -1.64857136854887    1.86101591518423   16.09853405774478
H        -0.58550025628051    1.62216629677014   16.23033019083953
C        -2.39898972557104    0.54818170005174   15.86053630486963
H        -2.33108920162717   -0.09435273897889   16.73467028697409
H        -1.96314492390553    0.02784700326115   15.00748107255902
H        -3.44750215617190    0.74491739685242   15.64682549122325
C        -0.57793262344653    2.86325699119750   10.24849917667916
H         0.18458003137286    2.69439294363825    9.48941410024517
H        -1.25029522262056    3.63355099523285    9.88047918875465
H        -1.14939758362747    1.94775948806136   10.38760723590590
C         0.07522420884333    3.28345415433949   11.56786325593999
H         0.80396216641916    2.50472902290237   11.83929567587257
C         0.82885520782376    4.60572610389192   11.40583824934901
H         1.33430213238496    4.87251017836567   12.33232609312606
H         0.13989119171873    5.40709672666628   11.14885295004029
H         1.57382782000748    4.52664720809207   10.61530721502645
C         1.53033828633765    2.64675654373799   14.36887652424567
C         1.56137942818372    3.97706206854176   14.86323433278751
H         0.62470816621107    4.48640253844507   15.02849318742009
C         2.76606833483992    4.55624893827107   15.14625922406117
H         2.81224554328055    5.55575909639384   15.55467433214574
C         3.94326153028301    3.85411810833824   14.87860344488712
H         4.91002754535878    4.29599333918834   15.05891427214177
C         3.85499009802418    2.57292345971100   14.36392838014193
C         5.11538866456453    1.88817628859002   13.97277959872963
C         5.61277256048398    0.81374995445625   14.71248777127104
C         6.84231010654170    0.26711067825280   14.37319462145916
H         7.24147148020170   -0.54731987540490   14.96046923719875
C         7.56018809344412    0.75693806693318   13.29761958308235
H         8.51745053026659    0.32565999221592   13.04412534806027
C         7.05070877893884    1.80139101487868   12.55043705005363
H         7.60626792638125    2.18250009293986   11.70567388959350
C         5.83498325168229    2.38560880468850   12.88165783206282
C         5.32841013077667    3.53949528623509   12.06384953302018
H         4.24317230883798    3.60392375720630   12.08870878018389
H         5.65557146821504    3.44308266490079   11.03041131649622
H         5.72553383372742    4.47671118282800   12.45387377944281
C         4.83269111586918    0.26586813179162   15.86763306570354
H         5.45811594825851   -0.37002023677495   16.49051184521198
H         3.99155575498539   -0.33258833858560   15.50482913163727
H         4.43128450455901    1.07548629482232   16.47446817797465
C         0.28141047165075   -1.54584426524992   16.75240157516804
C         0.49871738653828   -0.72864054870449   17.87417045287615
C        -0.34627014320503   -0.84236819127240   18.96677993443265
H        -0.18242865250617   -0.22791199193635   19.83887579847861
C        -1.39065634060562   -1.74827491488498   18.96313482673522
H        -2.03651859220793   -1.83339423004248   19.82489643163964
C        -1.60539320684144   -2.54506428221928   17.85450297964412
H        -2.42467441012139   -3.24808300798876   17.86194937302757
C        -0.79294170958710   -2.45546612111845   16.73342510867514
C        -1.08888339348194   -3.32004489730738   15.52611914590024
H        -0.42727286678267   -3.02073481739795   14.70375435890379
C        -0.82656477595609   -4.79668628367808   15.83627200577905
H        -1.03589444111119   -5.40326251890457   14.95752530895524
H        -1.46552050756954   -5.13557556912570   16.64878037749000
H         0.21024246679764   -4.95511875881177   16.12396136618413
C        -2.52894414298355   -3.14239393691410   15.03845021375795
H        -2.67886915672828   -3.71976874190047   14.12910942780900
H        -2.73483974621146   -2.10098473722657   14.81091636817392
H        -3.24314945462910   -3.48333805185615   15.78363379994478
C         1.69874264732419    0.19129176974614   17.91047401531606
H         1.98426319612575    0.41198507044144   16.87168523592603
C         2.85586436906898   -0.54461666671947   18.59614305293693
H         3.72687275702177    0.10160701070425   18.68168148345194
H         3.13479148725171   -1.43177195801212   18.03206278068135
H         2.55746893917940   -0.85346092415203   19.59648813113840
C         1.43878105191941    1.52303868055062   18.61392496784771
H         0.54726945725733    2.00285417637638   18.22042513878466
H         2.28345941816977    2.19178899248210   18.45486085038736
H         1.31853090922168    1.38761390973112   19.68619888703676
C         1.91880603936888   -2.40093090573777   15.26153758016311
C         2.31139120957567   -3.47850530730723   16.09753207597075
H         1.94219566401460   -3.50632765138572   17.11146464953289
C         3.14963231318502   -4.43781406210060   15.60139192244469
H         3.46718203623526   -5.26094099582419   16.22596355518603
C         3.57988190193553   -4.36216510259477   14.27383434191084
H         4.20095007145886   -5.13095726482657   13.84298132291232
C         3.17668298228937   -3.28469631906657   13.50867408654174
C         3.53903854994225   -3.22067426511690   12.06945082896851
C         2.58463477891077   -3.59928268876072   11.12121997504944
C         2.93495411180055   -3.58696168625802    9.77693181336452
H         2.20551106817408   -3.88284534438805    9.03640778745121
C         4.20590280219314   -3.21198761271441    9.37983826838152
H         4.46823681191946   -3.21524272153813    8.33148649383263
C         5.14501465424176   -2.84328050943450   10.32616287227477
H         6.13984235419063   -2.55419252788829   10.01724115700653
C         4.82378849318306   -2.84547482702677   11.67757769080199
C         5.83999003161551   -2.45427940634728   12.70670280477404
H         5.39653859124546   -1.79326519477911   13.44847020343251
H         6.68433191550455   -1.94656731801904   12.24636407601108
H         6.21090501248086   -3.33781980614587   13.22601577241979
C         1.21376854335137   -4.02756858091792   11.54754560033247
H         0.67250766353885   -4.47310631608053   10.71661610550283
H         0.63749175352509   -3.17369624595444   11.90777537464399
H         1.27364023195415   -4.75059592203942   12.35996472875181
C         1.63930754424901   -0.30415307182437    9.98390859422038
H         0.70038715505933    0.25682207076110    9.96932642246436
H         1.41284757201630   -1.37397633151858    9.95189065655511
C         2.57190621242682    0.11711851058950    8.84561321577148
H         2.02683879427622    0.57388970017382    8.02340199172048
H         3.12104919264527   -0.74611254787012    8.46942382348264
C         3.53127965746781    1.08275615168900    9.53678143124153
H         4.49295867344096    1.16302194219747    9.03678753428543
H         3.08548001391607    2.07477966471778    9.62085577423202
C         3.64045532679294    0.43720637511983   10.91079309211839
H         4.31568646396288   -0.42806381375903   10.87439862489801
H         3.96820511624506    1.11758614125451   11.69748184709190
N         0.41385136667708    1.97142137574136   14.09703524272358
N         2.68741275155711    1.95256862015391   14.14678138896443
N         2.40219436570510   -2.30233392800366   13.98582361210615
N         1.10650179956843   -1.40633014124820   15.61906613299452
O         2.31572824374774    0.00012725638788   11.22337552592357
Br       -1.01657159396803   -0.81332597201481   12.20353557004905
La        1.21152068107592   -0.13078897769562   13.64315177095897

