169
CSD_code = HUQBUR | q = 0 | S = 0 | Stoichiometry = C75H87LaN6 | MND = 6
La        6.01419757397656    4.65484868472233    5.03545945571187
N         3.54723582979990    4.76847629103781    5.03727565952113
N         4.38721384410214    6.54651886512759    6.19570510256344
N         6.35718890417895    2.97210554543174    6.81071643653332
N         6.36944457612510    3.23917009926632    3.04331176602032
N         8.25147917830736    4.22359781305994    6.57793551641595
N         6.72472800044167    5.42474150023061    2.49091042577149
C         7.62026935550407    3.17477868979890    7.18533783204069
C         8.28933324818202    2.40300443965118    8.17555247199867
C         9.58851832054057    2.68354538157730    8.48677108199541
C        10.21656886146365    3.76830590629309    7.87335328500564
C         9.50362490349734    4.52563815025838    6.95973332751570
C        10.11522532079013    5.80882635408167    6.53408007052585
C        11.34517283232925    5.86011405171735    5.87495096900734
C        11.94200626143695    7.09488072265753    5.64604093569547
C        11.33257318703883    8.26466506418706    6.05736248349473
C        10.11420030479116    8.20970793927384    6.71028298962625
C         9.50324594605515    6.99190320880732    6.96638163706724
C         8.22846964893597    6.95087439287037    7.75261142598754
H         8.06775642512167    7.90159596186607    8.25226432542567
H         8.26120590796847    6.16015788596640    8.50051582491817
H         7.37008344335880    6.76197860372178    7.09730038362877
C        12.04217861138928    4.62128633052242    5.39840379775583
H        12.83083646712766    4.33604264673013    6.09515321759028
H        12.50572928602052    4.79638189979047    4.42895305639969
H        11.34581392879046    3.79288710089803    5.31485864298119
C         5.57872970908325    2.09140568175558    7.60236188963643
C         4.84212965288473    2.62674665556522    8.67487015394934
C         4.12645106680424    1.77079811572002    9.49798665870083
C         4.12488653898391    0.40644551885877    9.27654782549510
C         4.83326052142523   -0.11295695612817    8.21122400544312
C         5.56215797029650    0.70916128028915    7.36294149791228
C         6.34806901855896    0.09528546759549    6.22706611170567
C         5.43571749429498   -0.68686891107515    5.28228466597991
H         4.88854036012577   -1.46260829125279    5.81223963737962
H         6.02693385847804   -1.15372173564735    4.49868704147563
H         4.72362336919253   -0.01881070967215    4.80762435004444
C         7.44659442414491   -0.82997384727156    6.76002894187281
H         8.14698032742811   -0.28540207452409    7.38928988882665
H         7.99582666304012   -1.27033233977382    5.92997968610676
H         7.01611311651996   -1.63775854698608    7.34760085233131
C         3.29029787777347    5.84746885478545    5.77653934914131
C         1.97945768018677    6.29897616719587    6.09515868322414
C         1.81769486695192    7.41424953355335    6.86551575392027
C         2.94452526213258    8.13029221585206    7.27163065511545
C         4.19667927739190    7.68296801386797    6.88629833959157
C         5.33519278844161    8.60661136664126    7.11574356858465
C         5.69682497277335    9.03217189429848    8.39549572472993
C         6.66619711808272   10.01923997453355    8.53407195646822
C         7.27457742420455   10.57665076241243    7.42580713472166
H         8.02200271316302   11.34726350715452    7.54878650472681
C         6.91247574933939   10.15330661699298    6.15954329297252
C         5.93752016796433    9.18237307977926    5.99035211360720
C         5.49607225374014    8.80364670074435    4.60955035849675
H         5.84437400306724    9.53997746878555    3.89135930086111
H         4.41014216990375    8.74362713906598    4.55509344426912
H         5.90374253253065    7.82777271981667    4.32134147043261
C         5.07438972255638    8.45111915753031    9.62937243635818
H         4.29471957118754    9.11160768143171   10.00973494337009
H         5.82135916435478    8.33656546923555   10.41310639188659
H         4.62843721342163    7.48404615172195    9.41926652674552
C         2.45815113451908    4.17821577220844    4.34898765697544
C         1.64566902663791    3.20794750750132    4.95446356394840
C         0.55395476580741    2.71160845132067    4.25549481997518
C         0.26098665331203    3.15168978602204    2.97994831002580
C         1.07479568145957    4.09296755770319    2.37809408838637
C         2.17438243234893    4.61493896405602    3.04200622097283
C         3.02117570260708    5.68545775862884    2.38764874649039
C         3.23433219132441    5.43599189452164    0.89380938821252
H         3.54420932538916    4.41127017503595    0.71570227295373
H         4.01463474494555    6.09082193988703    0.51254518759372
H         2.32903967400512    5.63395512226412    0.32460827774327
C         2.37811955786281    7.05909015907427    2.60709823028769
H         1.38915173600468    7.08771414391291    2.15290644266953
H         2.98916221186763    7.84030013512828    2.15980575130913
H         2.27124566974221    7.26707652141395    3.66958378487642
C         6.64524969909074    4.12255739037798    2.08398943178082
C         6.88833018010603    3.77263633681088    0.72678073360228
C         7.15802771800044    4.75185151804525   -0.18533639205514
C         7.25567598505087    6.07551536388091    0.24559193888586
C         7.06813683262676    6.35814881640751    1.58785198049010
C         7.43393228230205    7.72317410319630    2.04024967799443
C         8.55458730223711    7.85129858728651    2.87023991355799
C         9.01541870007715    9.11521391779471    3.20494869794073
H         9.87650381189456    9.20751106289519    3.85009594896545
C         8.39672598952181   10.24727393591532    2.70550606559838
C         7.30104198681511   10.11785625938460    1.87386484489568
C         6.80653025542395    8.86346753713728    1.53430803407628
C         5.60725231420586    8.77848315112476    0.63863113774445
H         5.89856848837365    8.91987205664155   -0.40249521567083
H         4.89094907409013    9.55907054929355    0.88971772693829
H         5.12405802307423    7.81073562108309    0.72860433680859
C         9.29423867255749    6.63967084023705    3.34966943804509
H         8.75652158924031    6.15179683255920    4.17112297136699
H        10.27806526591728    6.92251216543069    3.71225266893036
H         9.40952516593581    5.91451565431229    2.54556439576785
C         6.55154694082361    1.86785215015487    2.73592391025127
C         7.80268279980708    1.28124196611468    3.00009090767859
C         8.01714325717510   -0.04250074143599    2.64775481826126
C         7.02127735404720   -0.78921901093927    2.04684607203612
C         5.78848257592091   -0.21542821631512    1.80673673673359
C         5.53239323319963    1.10620258432024    2.14479967761877
C         4.17800724095706    1.70297077860201    1.83800300984209
C         3.06233954105763    0.92945859779681    2.54065456373697
H         3.07718350441912   -0.12271906736453    2.26726955291239
H         2.09527472045999    1.34460804357153    2.26875301273336
H         3.16825227182279    1.01263078261640    3.61798592063442
C         3.91708021543219    1.72129643613385    0.32860352779799
H         3.93952479843515    0.71242153221269   -0.07719410242615
H         4.66511000618782    2.31558793561141   -0.19136481931825
H         2.93532806330343    2.14561388539369    0.12688464953107
C         4.87669020995371    4.11163151684509    8.96702861503658
C         3.52153340917733    4.65290009528173    9.42502446518341
H         2.73093999201742    4.32182414075965    8.75936271618585
H         3.53038249992519    5.74052586833616    9.41659899460636
H         3.28673987342936    4.33197764612393   10.43723083940776
C         5.94724866830564    4.40552962996633   10.02347363353608
H         5.71221136851528    3.88625777714380   10.95097403455766
H         5.99824654073692    5.47331508942818   10.22598986589412
H         6.92431445614773    4.06937006896511    9.68297505926039
C         8.92330712697917    2.09901001130438    3.60564779730432
C         9.81737429474301    2.65434498132338    2.49175335970056
H        10.26435028205934    1.83810852326958    1.92683975951879
H        10.61455024164771    3.26358582624806    2.91257182485671
H         9.23765184068077    3.26696866105214    1.80455322902175
C         9.76079893431431    1.30019158759168    4.60542551260840
H        10.39510053458795    0.57410903916343    4.10228209475482
H         9.12213423278831    0.77919698000343    5.31139760717524
H        10.40675458515665    1.96807819054138    5.17084355081767
C         1.91236398772612    2.72051185311002    6.36017536500558
C         2.11945593676964    1.20625353780844    6.39048587760692
H         1.26418560700677    0.68113462745894    5.97242750530527
H         2.26407148066391    0.87253886549306    7.41481539283918
H         3.00613126995409    0.93626386782224    5.82511268964584
C         0.76106634425947    3.09871845233843    7.29738216439680
H         0.63038182043139    4.17758521166594    7.34246036391632
H         0.96412911030526    2.73164217147332    8.30166012153013
H        -0.17206593972803    2.65537277064227    6.95716072468287
H         7.52973650401732    6.86257306877455   -0.43754741258583
H         4.16056554555091    2.73165458701503    2.21595514542969
H         7.20793629051744   -1.81498946165625    1.76305839343879
H         0.83567004911707    4.43567433605168    1.38324476007268
H         5.01610893209660   -0.80509575333468    1.33569637837979
H         8.47660707421294    2.95085563993068    4.14317647226696
H        -0.60181418050175    2.76558241863481    2.45642927844915
H         2.84786257986467    9.04922336100802    7.82614916427770
H         5.15567874139969    4.63871969284384    8.04046459638663
H         6.81095397502480    0.90467671147510    5.65081027061493
H         0.82889585982973    7.76036635716528    7.13103564992072
H         1.13547100800109    5.75141644574474    5.70733006891922
H         4.00963328556108    5.68821717401056    2.87455414457094
H        11.21967292605028    4.05418568327270    8.14410090633586
H         4.82838617655939   -1.18005424652477    8.04570682116130
H         6.86530840034404    2.73105417161302    0.44906121343934
H         2.83483106780930    3.19115224932073    6.71929046881188
H        -0.08750509463347    1.97715812190975    4.71942824496300
H         8.97937089536043   -0.49683913802096    2.82682078064365
H         7.74609532610576    1.61413502747322    8.67065530860581
H         3.57496569460568    2.16806030776726   10.33609044611366
H        10.11643766449832    2.09548218926712    9.22400708321525
H         7.32788018732678    4.50425858487484   -1.22354725039547
H         6.94061428301510   10.35158721111094    9.52549173339680
H        12.89700612351938    7.13178900210009    5.14080803553420
H         3.57566104998381   -0.25005456018943    9.93604239479312
H         7.37760618387870   10.58962126533097    5.28809153497019
H         8.77383021868861   11.22853851143116    2.95557102764406
H         6.81765409605000   10.99903666927474    1.47572942557753
H        11.81130259723758    9.21666229279635    5.87815862324330
H         9.63465467522523    9.11890253101315    7.04135133405408

