69
CSD_code = HUQDUU | q = 1 | S = 0 | Stoichiometry = C34H28AgN2O4(1+) | MND = 4
Ag       -0.05081562172488    4.71118717352399    5.41937915542116
C         1.95674690463824    5.13740623631992    7.85536112585276
H         2.59256464403759    5.39214047848609    7.01810866646982
C         2.37097950835897    5.41981482983024    9.16352290959709
H         3.32347121675381    5.89563867276100    9.32999434752058
C         1.54707625059845    5.08324437089108   10.20281061990461
H         1.81941339518193    5.28862940281218   11.22751518592671
C         0.32199787753501    4.43881124651762    9.93474214665959
C        -0.56076371305977    4.03440402693221   10.95595784826942
H        -0.30081656859183    4.23660421306708   11.98309288568443
C        -1.71693924932649    3.38333925423770   10.63496389685310
H        -2.39406940282861    3.05934450815558   11.40984744166009
C        -2.04906110807503    3.11334996060993    9.29933491122206
H        -2.96429128705697    2.57880398842262    9.10378592870018
C        -1.22476278387577    3.50708059439057    8.27010698760998
C        -0.00599885859238    4.18721707076896    8.57514970527263
C        -2.73793065932690    2.75383011817112    6.58740447735959
H        -3.52962338656744    3.33091457945870    7.08630158789880
H        -2.80305186537200    1.70492499680858    6.90259765182095
C        -2.93654429527152    2.85350529255144    5.09932257338696
C        -3.18377354947938    1.72881074854518    4.32988624100308
H        -3.18623889065533    0.75674868665606    4.79976582033689
C        -3.44778178637985    1.84045715215922    2.97459304256121
H        -3.64811016418552    0.95801580626869    2.38842583438707
C        -3.47200456988780    3.08964227421658    2.38427224659799
H        -3.69102025713513    3.18878012775681    1.33249008146665
C        -3.22611002249566    4.22871728681667    3.13376491808619
H        -3.26364735067129    5.19200627681237    2.65089859899191
C        -2.94246304724425    4.11778572149156    4.48779289215664
C        -2.90907569332222    6.49965943158714    4.93962670655275
H        -3.98300004690512    6.71262254808651    5.00332065669251
H        -2.54886201161232    6.70649732587598    3.92689852638001
C        -2.11827435422894    7.36333925734635    5.91591255406229
H        -2.44243322787579    8.41000831846300    5.87100876329942
H        -2.27036712507439    6.96984039856401    6.92679422595136
C         0.24151666003332    7.71800762017386    6.30942302431700
C         0.10376362306336    8.06354546156695    7.64657387905910
H        -0.85373185259484    8.00451414347391    8.13870595785397
C         1.20569767016554    8.49694656040712    8.36598419912019
H         1.08494205490501    8.76474269834395    9.40413948729914
C         2.44446456983296    8.59541956490463    7.76153394160285
H         3.29841833854453    8.93957606235940    8.32267165558123
C         2.57986898379656    8.26945482321442    6.42216064776060
H         3.54111985619548    8.36795880867599    5.94041395776306
C         1.49127770053104    7.83894064014883    5.68137989372307
C         1.61466935873650    7.58635728734258    4.20312266136411
H         0.95359002077819    8.28539479123778    3.67010288749530
H         2.65090031545647    7.75998843905633    3.88699559498977
C         1.15695564185481    5.91098457925416    2.57276598828607
C         1.52454109852698    6.72568362326328    1.52622656477652
H         1.90819085405674    7.71726274653624    1.70192985816296
C         1.42310047240527    6.28686101357817    0.19803711004363
H         1.72522370037923    6.95804521144469   -0.59062274107671
C         0.96147448759459    5.03689624022709   -0.09793838099287
H         0.89061013204591    4.69475008666932   -1.11840335306679
C         0.58141755097571    4.16656433138756    0.94295013048805
C         0.12201774974943    2.85535574607856    0.70337402423686
H         0.04562693446833    2.50321322362626   -0.31475516093442
C        -0.20254267743536    2.05293184413074    1.76295627120893
H        -0.53995525548408    1.03938573460855    1.62036811611887
C        -0.09049216639602    2.57023151448056    3.05999193658090
H        -0.33834155064823    1.95346270845258    3.91324693746185
C         0.66741622922197    4.59808340298098    2.29430731013432
N         0.81279035679568    4.56204331575946    7.56407117160261
N         0.31092969466398    3.79269206303477    3.32250824044866
O        -1.47102101323933    3.28639035112346    6.95241255482462
O        -2.65145353556734    5.16536521029754    5.32457603926233
O        -0.76979274961690    7.24840143682669    5.51072531615491
O         1.23498784592448    6.25372633997092    3.88561311673487

