36
CSD_code = HUQGUW | q = 1 | S = 0 | Stoichiometry = C13H14N2O5ReS(1+) | MND = 6
C         4.23147120128031   18.05691572819894    2.81944129695437
H         4.07267116951787   18.97497005202323    3.36873105040268
C         5.51066414349045   17.66228705663807    2.47585329923649
H         6.35393443160893   18.26921807639769    2.75998921741693
C         5.67786022535085   16.48227913398565    1.76723143148197
H         6.65871191302326   16.13810716323220    1.48103279147997
C         4.55069715283595   15.75043347127164    1.43555721263303
H         4.63257390858584   14.82807895159035    0.88248705152093
C         3.29775177033846   16.21924617645025    1.81156817751386
C         2.07289509049228   15.44474177299803    1.42973707208643
H         2.29850034453641   14.39311118261420    1.25028841984926
H         1.62525928158374   15.86496975254793    0.52378177710230
C         1.60046704715700   14.80463904423757    4.12869873301522
H         1.17726693846686   13.81222491903237    4.28156021746659
H         2.66114920827974   14.71621380471524    3.88436187485585
C         1.41112006528194   15.65991183094103    5.38161209663052
H         0.36373205661291   15.63887112922863    5.69690919616890
C         2.31720891326168   15.03875988566274    6.46841388672678
C         2.43936166439657   13.38001746296453    8.13715209125311
H         3.51273465712903   13.50571641585923    7.99252635876996
H         2.15709629156001   12.33174569026570    8.07232260559778
H         2.14681999438642   13.78510034532609    9.10594216142517
C        -0.65819856164924   18.24487553011720    3.86025500345432
C         1.65412493315669   19.77582177025109    3.66153924736315
C         0.62610432483226   18.55765615773577    1.39405130361331
N         3.13982293301977   17.35566311528546    2.50239038101704
N         1.84822251642202   17.04013473065410    5.13760574425136
H         2.87572729665632   17.03422304986417    5.20903225108234
H         1.53949484479174   17.62164111121405    5.92041669983270
O         3.44652116621843   15.43121173337623    6.61391450849569
O         1.71585618335294   14.06908560849048    7.11093588229371
O        -1.71568878401644   18.34452318248797    4.26098678189186
O         1.95202160668577   20.83760887065003    3.95378835038443
O         0.34103912723430   18.85287711253724    0.33364178137496
Re        1.15160128995336   17.94898101928037    3.17488401475814
S         0.74600365416721   15.55253796187311    2.68026003059840

