27
CSD_code = HUQHEH | q = 0 | S = 0 | Stoichiometry = C11H8NO5ReS | MND = 6
C        -0.82889133409616   -0.84526018258781    2.83795802141754
O        -0.43818489342466   -1.91579536474103    2.72329831027678
O         0.26294277673602    3.25271245554409   -0.00272062256911
C        -0.07729993821160    2.94179961219396    1.12241387103300
C        -0.74537921199689    4.07297980730892    1.99401995941827
H        -1.10328881146293    4.89201765686397    1.37047482184871
H        -0.00100435585393    4.44813339074105    2.69951392142755
Re       -1.44006477220706    0.99716122816158    3.00915029921076
S        -2.10851397297857    3.45125559559654    3.00022110358885
O         0.04257664600871    1.82545239571679    1.68420657084315
C        -3.02981753708719    0.43732086066048    3.96980937480438
N        -2.39732309875120    1.11313787378111    1.02096422046766
C        -0.39286419927809    1.20574375659774    4.63875258674842
C        -3.39094055854682    3.21354432580048    1.71172501800416
H        -4.24860870289915    2.80360516977254    2.25294384600433
H        -3.65053314269991    4.19192656415871    1.30659992870696
O        -4.01556898495630    0.17598749850969    4.49538572572263
C        -2.65820812268387    1.73665114167943   -1.67422696981752
H        -2.73127117588808    1.99777705183547   -2.71823464791520
C        -2.94296420215484    2.27299970901238    0.63885033874439
O         0.25023063520286    1.41519034143992    5.55716000478456
C        -2.12466281703885    0.52294043339087   -1.27490620455096
H        -1.77391346014214   -0.19910453890205   -1.99368601966499
C        -3.08770327805358    2.61780808775059   -0.69838774278602
H        -3.51347847698186    3.57345895353657   -0.96208290318743
C        -2.01502081711708    0.25549436277149    0.07718894454462
H        -1.58994419343665   -0.67763818659377    0.42040824289433

