21
CSD_code = HUQJUZ | q = 0 | S = 0 | Stoichiometry = C6H8Cl2N4Pd | MND = 4
Pd        2.03292399716314   -0.00032090717739   -0.00091522736910
Cl        2.20753875397153   -2.04428267621238    1.04310448867666
N         3.08289067748443    0.86795839717577    1.46660588046298
N         3.22229409966614    2.19664893914759    1.48998233264358
H         2.81334950055155    2.72075773916676    0.70209439776754
C         3.72204430687587    0.39326937973954    2.53007447580444
H         3.76055852394340   -0.65799511979572    2.74802008346859
C         4.28584172225804    1.44892689290634    3.24833600792369
H         4.85899644361790    1.38277305986735    4.14897026145803
C         3.94487127572545    2.58564692916891    2.54659236083205
H         4.16616319689746    3.61607190278888    2.73673089714647
Cl        1.85428878749793    2.04460078482902   -1.04291674681338
N         0.97992964195535   -0.86799285518779   -1.46654996466403
N         0.84038477846623   -2.19666696567547   -1.48987884100085
H         1.24947189178305   -2.72080070617651   -0.70209581531092
C         0.34060632994707   -0.39326215620642   -2.52990565714460
H         0.30224753357906    0.65800455776695   -2.74792680757850
C        -0.22315543034947   -1.44890215224411   -3.24822055913630
H        -0.79622518514545   -1.38273728175576   -4.14890649412438
C         0.11779833192548   -2.58563684851969   -2.54649440142219
H        -0.10341917781378   -3.61606091360603   -2.73670067161963

