19
CSD_code = HUQJIM | q = 0 | S = 0 | Stoichiometry = C4H8N2O4Pt | MND = 4
Pt       -0.13543409020769    8.52178852747862   10.86754552759591
O         0.70991765307136    8.31812493439000    9.09443646229184
O         1.74508835711762    6.81628741507368    7.84665190032182
O         1.37627694992590    4.97691318243312   10.01908869560068
O         0.36615231541014    6.62525344836227   11.09013207040652
N        -0.68957834956144   10.54354343090706   10.65149386727271
N        -1.02658258077981    8.76454501979170   12.76053849540095
C         1.19058017555993    7.11806505273968    8.87671603799983
C         0.98978943218003    6.12135132669593   10.05286221330643
C        -1.80830226753168   10.00941908334848   12.75248778894724
C        -1.02172771316343   11.07618126097014   11.98079252717729
H         0.05738867708338   11.07174128591091   10.20244273525361
H        -1.49852704986209   10.57270416610310   10.02928041543910
H        -1.60580113553705   12.00135312706598   11.91948974973078
H        -0.08816353761174   11.28848593650659   12.50867622545074
H        -2.75453445147882    9.81796197150875   12.23943949967684
H        -2.02653032941237   10.36422943189768   13.76613209198268
H        -1.59826798888007    7.95332291705977   12.99198942241402
H        -0.27004406632216    8.80792848175651   13.44480427373096

