51
CSD_code = HUQLUC | q = 0 | S = 0 | Stoichiometry = C20H20Cl2F2N2O4Ti | MND = 6
C         1.36261644504285   12.94388490269473    8.26189447145510
C         0.84024942063705   13.75510526990611    9.29507449396473
C         0.97456662612096   13.43583893082957   10.63079212996792
H         0.56606912557976   14.06918650263076   11.40053272941453
C         1.65478547331787   12.27484866533687   10.95330453326390
C         2.19523975693301   11.45099923736635    9.98380023742257
H         2.71733561704077   10.55536383461501   10.28523811415186
C         2.05489300900071   11.77134472191590    8.64130965263714
C         2.60481138756429   10.86459991965630    7.57198952828844
H         3.24719124866050   10.09813458624043    8.03647471322774
H         1.76251253869290   10.37426358224260    7.06545312989353
C         4.42362753039672   12.42128597346367    7.13917597502892
H         5.39436611858585   12.12709659181593    6.72484830053763
H         4.45895713282331   12.28655966184685    8.22408778849454
C         4.13537479609766   13.90914123446771    6.79119551738560
H         3.55634615938330   14.37115781487161    7.61311494118857
H         5.09004445313374   14.46077193780716    6.70095457505101
C         3.85699272699144   10.71194419586069    5.50768763162957
H         3.07326812903081    9.98161133555518    5.28551278189895
H         4.75427990702906   10.16741035694846    5.85012569284194
C         4.18913623684320   11.49901589245786    4.23562003966699
H         4.89351878161503   12.29964637673513    4.48034326057735
H         4.66464163045430   10.82778246129871    3.49920548502334
C         2.10031526678169   11.12876038341242    3.05028024361968
H         1.90091766986251   11.39982435031370    2.00951815467107
H         2.56960626974857   10.13888778814173    3.06293663408641
C         0.77333610027948   11.08931649833416    3.85971849931394
H         0.04759542420127   11.79053276350300    3.40602310292684
H         0.33696305683446   10.07408887763781    3.80815706561716
C         3.31492487203549   13.21773047172117    2.77204681648582
H         3.94336119668388   12.85233867782174    1.94299977241053
H         3.87537199536080   13.96303289743362    3.35240250560088
C         2.08051191571109   13.87489491081853    2.21328565149886
C         1.04740899059852   14.25791594819513    3.09878318629312
C        -0.08860772560809   14.88777459343896    2.54128212897698
C        -0.20952925487288   15.14076365619223    1.19013341711175
H        -1.08532152383420   15.62225923122299    0.78805804113834
C         0.82986983868567   14.75259958026867    0.36328346914555
C         1.95918806639417   14.12431270656797    0.85410877329767
H         2.74340430236541   13.83973123379417    0.16879703164172
Cl        0.02990472423902   15.18917999694416    8.79809526448992
Cl       -1.33941374906708   15.31143055916871    3.64410706610893
F         1.80562986671349   11.93990808198132   12.25462862478451
F         0.73496909779169   14.98283289630250   -0.96581746620796
N         3.35434167683167   11.60629624950794    6.54860246925479
N         2.98348723126379   12.11515680937421    3.68555800421042
O         1.20611862794886   13.30506391260950    7.02250788798779
O         3.43519146886515   13.97151709342432    5.61107185152691
O         1.02808147030024   11.43307790678672    5.16494668582479
O         1.09737028009609   14.04119615387121    4.37996502855121
Ti        1.95127859281398   12.95378178464785    5.46848436662065

