86
CSD_code = HUQMIQ | q = 0 | S = 0 | Stoichiometry = C41H34N7O2PRu | MND = 8
Ru        9.47646040856530   13.54805269193950    9.54571867965361
P         7.64347844500836   12.24413774694311    9.91427145029731
C         6.90233937839615   12.45660916679976   11.56568873944068
C         6.55242795669672   13.75592469703474   11.92879834842003
H         6.72748805550224   14.56146292044692   11.22752229727054
C         6.00098801994912   14.01115988560893   13.16933344279249
H         5.72450159718563   15.02071167354892   13.43643049762106
C         5.81318251114739   12.97196021176467   14.06779463327862
H         5.38822762071369   13.16856341453169   15.04083960702563
C         6.18107807236194   11.68301808547496   13.72052708333096
H         6.04654680837996   10.87513331195280   14.42485329851234
C         6.72413217941357   11.42038277629940   12.47390342979477
H         7.01222218458471   10.41233330420208   12.21210573234901
C         6.21700585101418   12.38883209764843    8.78373628370903
C         6.40044688667373   11.89212584154397    7.49305116109426
H         7.30591520749847   11.35222088996579    7.24857256738107
C         5.41921122001493   12.04760888628793    6.53386331306078
H         5.59004297299805   11.66826293900849    5.53798799990879
C         4.23263950638537   12.68569578623093    6.85942144464290
H         3.46472953478032   12.81394862462230    6.11157304941679
C         4.02962077045195   13.14890262749412    8.14837244970132
H         3.09615210312364   13.62621279108405    8.40885095396889
C         5.01838685419482   13.01194363689427    9.10858175925897
H         4.85407402276022   13.38292981653895   10.10986078268192
C         7.91135160636606   10.44170959254119    9.80799363758600
C         6.83195196069820    9.56207802288720    9.74230836897762
H         5.82248464477269    9.95080899817638    9.76167937721020
C         7.05648619588353    8.20204757315987    9.64926472972673
H         6.21865458660489    7.52188269305902    9.59844496493908
C         8.35303266992951    7.71013666594428    9.61636002855938
H         8.52258880550986    6.64654592943022    9.53600179646951
C         9.42717373512475    8.58079085288606    9.68186664080356
H        10.43699623151029    8.20022216517720    9.64977606194663
C         9.20749675817791    9.94379965398227    9.78007776603039
H        10.04138520300182   10.63138140355065    9.81698214036173
C         9.14761780140216   17.04587337049450    8.11804072980057
C         9.08209395500032   18.41079848800183    8.45036310903532
N         9.05297613469851   19.52711939153050    8.71650785950042
C        10.21575946951570   16.63977229265450    7.29111872648082
N        11.08951545828684   16.27221273194671    6.64236228872270
C         8.26735268669900   16.10013433643564    8.58589171570957
C         7.14572541521927   16.46917917991375    9.45893349009579
C         7.33123408148026   17.21774937008313   10.61827806916130
H         8.32416433726105   17.52540499849692   10.91060569767353
C         6.24582570147513   17.55081849799466   11.40721506169020
H         6.39799139618538   18.12553373378078   12.30870593382236
C         4.96946136081752   17.15884538305931   11.03806206307065
H         4.12279910239991   17.42819618362533   11.65200036223158
C         4.77911161248694   16.42893421391226    9.87618451172328
H         3.78434329537795   16.13412514985920    9.57795229331523
C         5.86069539393095   16.07623751119213    9.09112480146229
H         5.71817845683636   15.51877436183737    8.17695747459515
C         8.52165959501636   14.72911549481661    8.23018810845830
C         8.42127780706405   14.28772850168910    6.91590559686697
C         7.74248177482944   14.96800823498628    5.90044935571295
N         7.14868403136712   15.53770124186801    5.09634511325651
C         9.14137577223110   13.08166052366034    6.71899702972755
N         9.76928433593759   12.57804655737196    7.79362444180106
N        10.44618697237425   11.51436719363397    7.38915448611749
N        10.28785320106086   11.32971672318531    6.15221290157012
N         9.47085583431240   12.28896841991339    5.67784630252519
C        10.34791194110137   14.28008200078814    3.66987703831251
H         9.43901160183397   14.86673238080238    3.50579132634847
H        11.09443111492893   14.53729378916398    2.92311858218133
H        10.74230594466450   14.50408835580186    4.66570301568573
O        10.09436470785046   12.89374422843795    3.49526469726353
C         9.07647201734523   12.38404496065123    4.28455035580263
H         8.17924762600278   13.02545633025631    4.26494858432308
C         8.73183881517313   10.97582862475929    3.79767568844373
H         8.46463496513578   11.02086091251993    2.73349685230638
H         9.61917357674371   10.34075770863759    3.91853883074544
O         7.66045389785431   10.50553354275699    4.57875714485281
C         7.38883052928048    9.13910208139734    4.37587123749555
H         7.11065097085993    8.94116752488412    3.33461338031758
H         6.55620517671900    8.89182193377319    5.03134236719969
H         8.25692645342839    8.52356394036180    4.63681519818819
C        10.58907559294681   15.14603986161595   10.68154760044254
H        10.52056750919709   16.22247459719962   10.59540437067116
C         9.90022765136768   14.34354167182932   11.61525997559446
H         9.24898995942480   14.69923981432636   12.40337828180323
C        10.44365806596186   13.01787828187694   11.52832089224751
H        10.21906756656469   12.21000380057993   12.21420012534087
C        11.43090477698824   13.01300682187538   10.53143181352973
H        12.09331490417387   12.19360460864223   10.28938327502671
C        11.50378919082043   14.32250520548165    9.97015357919780
H        12.26993989497483   14.67596756097355    9.29161374533844

