65
CSD_code = HUQMAJ | q = 0 | S = 0 | Stoichiometry = C30H24Br4N2O4Ti | MND = 6
Br        7.63089750391494   12.63003446717729    9.42807258241613
Br       12.44565715707993    9.62043641410652    8.82260729804257
Br        5.68310275049103   10.27565689852875    2.59103990633320
Br        0.61988917066727    7.65381693023872    2.49713938706538
C         7.78550235041149    9.91885420533954    8.81509091551403
C         8.58261324515957   11.01646021034066    9.16292436446862
C         9.95934086321421   10.94585120671148    9.17834890740982
H        10.55240102388965   11.80951501367304    9.43544922589556
C        10.55557199849066    9.74291994900756    8.82999024156081
C         9.80998961009815    8.64935487718808    8.42218368254664
H        10.30507181481209    7.74645641848434    8.09791307575909
C         8.43006934770335    8.74003564453317    8.39608866309320
C         7.50746882837243    7.68386301440774    7.85523761411694
H         6.90418058650962    7.29453787613681    8.68384877343409
H         8.08145951372622    6.85055238428946    7.42362624632181
C         7.31633031818758    8.30115425376923    5.54772815125540
H         6.63017905225396    8.68089439210811    4.78437603024222
H         7.61696717620649    7.27968997985366    5.25795992550074
C         8.53716521755364    9.18639601021480    5.56316047963861
C         8.45114640739301   10.53324304380989    5.97994584444965
C         9.60116933430337   11.33323695145521    5.90866497775724
H         9.51548215412710   12.36435347798835    6.22273036008831
C        10.79910103092369   10.82109983203820    5.45748262044705
H        11.67287989052370   11.45400521140184    5.42088974298220
C        10.88306781889723    9.49626702283208    5.06199623172635
H        11.81978897959227    9.08828070439898    4.71647310619178
C         9.75395322538817    8.69836391427597    5.10969727092604
H         9.81784819444652    7.66843224037711    4.78514189515457
C         5.36924868347715    7.47897555177194    6.74560677531178
H         5.58090797535625    6.39965817648401    6.83496809091690
H         4.90887057171853    7.64051829956930    5.76662545724391
C         4.37690173805709    7.87943911789280    7.84725994049850
H         3.47364959008030    7.25578569765827    7.75067429366338
H         4.82819145865676    7.66307621058283    8.82223841082692
C         2.81465360186445    9.53197283998184    7.00361445111740
H         1.98969234342787    8.91972271375420    7.40725494169273
H         2.53681293002441   10.58825201226363    7.13204428893365
C         2.94830464549977    9.27030717828271    5.53242631908914
C         4.09445948494356    9.75796146134455    4.86513443841631
C         4.13129513621944    9.60781215548982    3.46314063447458
C         3.11841359550380    9.00515501998247    2.74858628401302
H         3.18651583143207    8.90953152391311    1.67642937585416
C         2.02369904476459    8.52054462471665    3.44493071225662
C         1.93311234572068    8.65505290381845    4.82117303404188
H         1.05838969439778    8.28747868948501    5.33733675801570
C         3.71244096537323    9.78539655242828    9.17124169506360
H         4.58057229150510    9.59284275433834    9.81386935537951
H         2.85568864037659    9.21331530703779    9.56809616873497
C         3.38623010691804   11.25812099751382    9.24768609959485
C         4.08973390683596   12.22155127234472    8.48994625597506
C         3.78224445225920   13.57836025536570    8.67990854140514
H         4.33974443332982   14.29976922704331    8.10030610055620
C         2.81473603814877   13.97319652535915    9.57774564983638
H         2.60131906292297   15.02322423090595    9.70760159034096
C         2.11618150627759   13.02486071285567   10.30872108053586
H         1.35276460790055   13.32591764341505   11.00886003139728
C         2.40863834419331   11.68434120331439   10.13811729504531
H         1.86993631644225   10.94543189698808   10.71591366880187
N         6.60308770812370    8.26470922578952    6.83687456070312
N         4.02848663417859    9.30660223439197    7.80928221621861
O         6.47616695563754    9.99720860161820    8.81005326554652
O         7.34524216935797   11.03724699854110    6.48703011058647
O         5.09650647385122   10.28334279262231    5.49740074982101
O         4.98820545516821   11.88546857859347    7.59088835902798
Ti        5.84726069571800   10.43998626785525    7.15580547872452

