60
CSD_code = HUQRUG | q = 0 | S = 0 | Stoichiometry = C29H26O3PV | MND = 9
V         9.62538899647529    0.47455817049820    3.35221760030655
P         7.32869439612206    0.78215428764980    3.19044958059694
O        10.50028933883282   -2.36635991974104    3.13144185820837
O         9.23312544385849   -1.04866457075196    0.83765906851271
O         8.98319027348869   -1.50021315931758    5.47445222744192
C        11.64342669300650    1.21275122629172    2.96665059796578
H        12.45696560845689    0.68690909874191    2.48267502273457
C        10.72476576516874    2.06684718148892    2.33682598970842
H        10.71774936479012    2.32607070971997    1.28663640873559
C         9.90688365753186    2.62802392119231    3.33181953993439
H         9.19171799287419    3.42595656312683    3.18341820766196
C        10.33496019484789    2.13507054869312    4.58229831716250
H         9.98946315637010    2.47948471571658    5.54750117932617
C        11.40790516908471    1.26383169498230    4.35571922143524
H        12.00460389267482    0.77580403070940    5.11657643005941
C         6.15044408621253   -0.61714209871002    3.48390916598909
H         5.19504207026154   -0.33822842092862    3.00936275223117
C         5.89188348787347   -0.98244590501871    4.91138151686440
H         6.59704719169175   -0.68611922568336    5.67168465646029
C         4.79080249538518   -1.68003306463289    5.22824362107927
H         4.54673813320714   -1.83894690251384    6.27027120476665
C         3.91207529063789   -2.29072096265604    4.27464570859615
H         2.88997749299923   -2.45340079633291    4.59214961110254
C         4.31976556187911   -2.84194975537186    3.10638376307928
H         3.60825348024542   -3.42393620931874    2.53494250897622
C         5.68398315702627   -2.88635767361625    2.66911616357027
H         5.98994231873019   -3.78380125221342    2.14852896852290
C         6.58974427814588   -1.92581755981209    2.90748220915142
H         7.63964692044069   -2.08274826848220    2.69749826301241
C         6.73315542748430    1.16546380337250    1.44335474847237
H         6.78576908807285    0.15873683789887    1.00047699268649
C         7.67360799299991    2.04102810859059    0.67352855894246
H         8.32736968079244    1.51363700220349   -0.01093315362985
C         7.76696230775565    3.37257442368717    0.74168953621966
H         8.54091031196676    3.85363496487712    0.15429252657909
C         6.93745900986361    4.28312064832136    1.48900464512396
H         7.37364449695346    5.25424394605488    1.68997070883527
C         5.65418218301564    4.07653204379964    1.83543799672632
H         5.10952209474371    4.88548394135938    2.30459821494858
C         4.88150060109369    2.90125277952297    1.53503485441481
H         3.81445027646276    3.07196973569183    1.45724375789578
C         5.32416050549884    1.65718998502693    1.32323447241008
H         4.60107484639652    0.91092381602661    1.01731484582188
C         6.64399016104866    2.13067304487974    4.26285220313956
H         6.92947053873960    3.07807622912520    3.78552803828084
C         5.17103520748597    2.15606566758499    4.52661268748463
H         4.58087993539136    1.27128390497628    4.35059822582179
C         4.59615742238927    3.27354580358625    4.99118890801694
H         3.51772404241209    3.31670807507348    5.07416281848882
C         5.30787844693664    4.43350933473576    5.44541266805117
H         4.78030370349888    5.37744990604524    5.39180231847449
C         6.49190285570416    4.39391396321653    6.09694379705297
H         6.87032080580413    5.30735104223973    6.53780301328187
C         7.20627106467003    3.18968791769677    6.41284087358906
H         7.72923781665331    3.18498467198213    7.36106780668350
C         7.23521282207587    2.09637530227812    5.63912883150914
H         7.70245340218842    1.18079210806430    5.98151378523740
C        10.07075155701918   -1.26666571131154    3.20936595824620
C         9.34080405064419   -0.51440438240251    1.87551851349020
C         9.18996143591981   -0.76281531791339    4.58866948451166

