50
CSD_code = HUQXUO | q = 0 | S = 0 | Stoichiometry = C25H14N7O3Re | MND = 6
Re        7.09511969211425   10.39153180118470    5.73304820888487
C         5.71616530896482   11.76827045357544    5.81192021128073
C         8.49419801295577   11.58719391195193    6.37885238291588
C         6.74321452729372    9.76081003597549    7.55016941451479
O         4.88590025996884   12.55760023336109    5.81873700935934
O         9.35289973305456   12.27357102602026    6.70085400271319
O         6.51580641283391    9.34214144223787    8.58846798121753
N         5.81242279559808    8.92620320880196    4.73609262155319
N         7.46394589267736   10.73034349790838    3.62369157618682
N         8.99877813106054    8.62511669801159    4.24213260950552
N         8.38089959539518    8.77584909948500    5.39489924705621
N         8.21251224914502    7.61913271202376    5.98911405166863
N         8.71603808429645    6.68425423146979    5.24161642876469
N         9.82412689433801    7.31818109785779    1.87485760464146
C         5.02104330415559    8.03776250401116    5.30711861017531
H         4.77056069644855    8.20915649173873    6.34551208433492
C         4.53526683338391    6.91426686057613    4.63762202808724
H         3.90439666083834    6.21704523607247    5.16479733547510
C         4.89282463553880    6.70286095164638    3.32745224227726
H         4.55741517555627    5.82989796562079    2.78751929123671
C         5.72041052785905    7.63811270429313    2.68690634727441
C         6.15242281239226    8.74868267939508    3.44112593079129
C         7.02776810639041    9.71582862717337    2.84483408792017
C         7.42036100203406    9.56039712410118    1.50038513291693
C         8.27424318515975   10.53331687700413    0.95949690386450
H         8.59721834285040   10.44903669143160   -0.06714543368003
C         8.68487384598214   11.57463440712845    1.75484694427459
H         9.34408846142719   12.34045083952836    1.37828043772519
C         8.26362818620405   11.62926341433800    3.08449821485082
H         8.59707641901512   12.43140752423329    3.73012381651706
C         6.16003717435951    7.50113052640885    1.33918173352086
H         5.83512683423499    6.63137203128992    0.78776866507186
C         6.96941519010252    8.42504749709161    0.76967906922620
H         7.30720907751644    8.30986967236881   -0.24894503279764
C         9.19787206684240    7.30928515122278    4.15004544038791
C         9.73656129638169    6.63295533585543    2.99143022837071
C        10.08324676958755    5.26328200217861    3.09745931456843
H         9.97166573929827    4.77640229340347    4.05328384961724
C        10.53555566314566    4.61422617458458    1.98751053027383
H        10.80865064209382    3.56786313581608    2.01973331873439
C        10.65138844373948    5.32216692255695    0.76993700823053
C        11.10887254704666    4.73708618665195   -0.42550336659764
H        11.38847429072304    3.69262935584866   -0.41875706206406
C        11.19997542468074    5.47896679504161   -1.57096968884756
H        11.55186180961176    5.02655103587949   -2.48649912496186
C        10.84399485602498    6.83681466267442   -1.56691052285405
H        10.93286027176804    7.40725343403986   -2.48049243851717
C        10.39533430960224    7.43488915904954   -0.42276470056393
H        10.13214633500900    8.48080448383761   -0.39439242570607
C        10.28212547330473    6.69548379604180    0.77337788059753

