135
CSD_code = HURGOS | q = 0 | S = 0 | Stoichiometry = C56H73Cl2N2PRu | MND = 5
Ru        3.28653606762599   11.02298762954622    5.93196044282324
Cl        4.70290067252913   12.89790322585195    6.06510301676917
P         5.17227512514185    9.56533418273967    5.78738422214638
Cl        1.77219570779311    9.29193936880198    5.36018444264795
C         6.04695296059916    9.31800797406277    7.42635077769595
H         5.23264750512938    8.94355352949080    8.06512912774011
C         7.21316178993438    8.33204844460082    7.50486471181415
H         6.95629467754521    7.36597657753356    7.06872494348212
H         8.07600574855170    8.73272709774573    6.97044639938622
N         0.61542495822533   12.46997898256368    6.09399684105021
C         3.09818588737501   11.40436047462643   11.44735536855340
C         2.20071283273921   11.19529266442426    2.02843889013509
C        -0.72178976907562   10.47766909993823    7.70172287161076
H        -1.73030993905687   10.65398792237723    7.32402371945045
H        -0.77920920180848    9.69797607276957    8.45700440076252
H        -0.10401745923729   10.11704639937094    6.88249804017284
C         0.53522152732499   12.65484897351551    7.50129143274260
C         3.02953646273023   10.77008753360657    7.84211625267332
C         6.43749325540951   10.36807853583491    4.67352441240578
H         6.84356316211292   11.16777541021513    5.31078907591922
C         6.49979729593754   10.65491412030487    8.01461443963310
H         7.37113948622270   11.02692827377654    7.47051103804117
H         5.70313414222095   11.39572577171364    7.93087319357588
C        -0.15211797000537   11.73219912805626    8.28764480452610
C         3.03336653102224   11.24454539681807    0.91894325811856
H         3.00943053607019   10.42433524787496    0.21501242571551
C         3.84614998179700   13.38750806234007    1.56314957695692
H         4.45383536088569   14.25991718743444    1.36785918600549
C         6.87455876432090   10.47494956480112    9.48188437726438
H         5.99597801037292   10.14389555750107   10.04094795401931
H         7.18677665830336   11.43300275833879    9.90143426824172
N         1.37218856101787   12.27179906785932    4.07240223283342
C         6.76547000060324   12.00268621233234    2.82591164543366
H         6.29432991246980   12.52512956529116    1.99333102180561
H         7.08120751951459   12.75184513169233    3.55514959710037
C         3.62578458857307   12.69578640289862   11.54728646450856
H         3.77808742109951   13.12372730582200   12.52923514769689
C         3.96739594936299   13.42192613207882   10.42613851365444
H         4.37942542886286   14.41432546326763   10.53681905728929
C         4.23236976104671    6.93438378907287    6.08086704765730
H         3.21390171818935    7.32012356600600    6.13750251305260
H         4.66514748977507    6.94923214465165    7.08297437626635
C         2.75593496593857   10.64082037076731   12.69054463276221
H         3.16135135322617   11.14139940981190   13.56757422291764
H         3.15276497081455    9.62839638639327   12.64987421269020
H         1.67544327119794   10.56386681664847   12.80699329217573
C         1.04508852530292   13.83522406843744    8.05055850136456
C         5.76481939031585   11.05814979475679    3.48191814267767
H         5.42745903883206   10.32797822096897    2.74286976498677
H         4.87884183949474   11.61954217739784    3.81158773375818
C         1.23318488294048   10.05971041223978    2.15588047184912
H         0.28605887831862   10.32958254367404    1.68504442364223
H         1.04100718451241    9.80236261105554    3.19420593759218
H         1.61649706224535    9.17768224195633    1.64784895388914
C         1.67873322760029   12.13717721402587    5.36885219974328
C         0.87825188250653   14.06231360863960    9.40578118923077
H         1.27743084004555   14.96597255696292    9.84284036183696
C         3.04786924800584   14.55839077556861    3.61165826462349
H         3.70017464269943   14.36737646629184    4.46582150558382
H         2.05154551102556   14.77517522393766    3.99114208112622
H         3.42422376405181   15.43581881512679    3.09181818869974
C        -0.53157736615443   12.87151003992704    5.28208123237226
H        -0.82377219618373   13.89893361395946    5.52413555671454
H        -1.38141982041850   12.21562010784208    5.48690502047899
C         4.41358046034783    7.77704972585892    3.74097297494354
H         4.98837026103821    8.38411837693491    3.03957045156683
H         3.40023117055021    8.17986378047392    3.79079891409659
C         5.04183133563845    7.82110022238239    5.13475720832422
H         6.07033270855624    7.44021944404402    5.07008511985133
C         3.28249596411408   11.61940601649231    9.01191030578315
C         1.91129783853245    8.51444654933503   10.59278146646071
C         2.44832622671764    9.57887219278117    9.73657847874734
C         2.92254228901338   10.88594247147724   10.17508008558532
C         3.04873870796804   13.37328653466456    2.69883930771745
C         3.86493363259555   12.32576044998630    0.67236376262210
C         2.25274869685545   12.24738130869829    2.95041403685056
C         8.61957599328662   10.43832472830057    3.47642928377385
H         9.45445528355151    9.84282720095025    3.09880835452778
H         9.01700744559713   11.14327227698921    4.21070752922885
C         3.79985317000931   12.89325342862238    9.14977198288331
H         4.09565303304943   13.47286933983337    8.29266706750630
C         2.54753815408102    9.52998614797195    8.37747077182265
H         2.25655718622995    8.67551298168454    7.79253875899030
C        -0.31650682815125   12.01295039535041    9.63727811013691
H        -0.87902986736074   11.32062897198878   10.24734614547650
C         7.99866191660510    9.45224030211773    9.61908381657108
H         8.89739501249867    9.84049531588763    9.13340553287024
H         8.23377588624091    9.29107108366612   10.67327644070633
C        -0.00413011646802   12.71502800786237    3.85721647027506
H        -0.55510654855615   11.95921342293856    3.29096479985904
H        -0.01581011611645   13.64967489737608    3.28619902458850
C         2.06823855054666    6.36071692360883   11.64396580661524
H         2.62932232028448    5.45852451808699   11.84477358522646
C         4.35993995044346    6.34178315385069    3.22362352713564
H         3.90293473980541    6.32834752777086    2.23147254643869
H         5.37708486120111    5.94939086024161    3.12778605465659
C         2.63375340484869    7.34476430189773   10.84599608674465
C         7.60061556166256    9.52315543103875    4.15666228326940
H         8.08885582821687    8.98044071288328    4.96579514766749
H         7.24056650459532    8.79093730203476    3.43081916448222
C         0.19778599452979   13.16162892944888   10.21365523025151
C         4.18896682184336    5.49856472174564    5.56599403107186
H         5.20364285644206    5.09120310598268    5.52300938089564
H         3.60952612483951    4.88026502636300    6.25506195446618
C         1.75302157789674   14.83428596572119    7.18934256910076
H         2.59210216449080   14.36250245248490    6.68101798184859
H         2.13087672893285   15.65593082331022    7.79100302940912
H         1.08263497525633   15.24250271399985    6.43255949727373
C         7.60790401522322    8.12835950337276    8.96845161755878
H         8.44463617577607    7.42763923237291    9.02461524792591
H         6.76932448276182    7.68873141491577    9.51144907774658
C         3.56350653627461    5.45842593038234    4.17656032926293
H         3.53610263086063    4.43196437227154    3.80397085114183
H         2.53797976779442    5.82778872359468    4.23545105337224
C         7.97532208492575   11.21472602191446    2.33135487417772
H         8.70678353138087   11.89246651554228    1.88600854884735
H         7.65584011494580   10.51306240078909    1.55571067233208
C         0.80472569721176    6.51551258693827   12.18555484287070
H         0.38155998310874    5.73624487439107   12.80218522103067
C         4.00839508873795    7.16816460150947   10.27766996316370
H         3.94414231770916    6.91538749353267    9.21956675086514
H         4.54078451778644    6.36938752389597   10.78991974955612
H         4.57584735970731    8.09326987342607   10.36954002143484
C         0.03699172208114   13.43740118692113   11.67674434911047
H         1.00460808760678   13.35764284457793   12.17088940464851
H        -0.64730530376647   12.72928680261899   12.13725395403929
H        -0.33892584450668   14.44597442782045   11.83892506710760
C         4.74653535898416   12.34290658992186   -0.53942446298550
H         5.59234724872655   11.67009372292173   -0.39764080576122
H         5.13315540498114   13.34131514175932   -0.72667960928349
H         4.19912797612003   12.00676255357136   -1.41753601225710
C         0.64489467779774    8.66460958494128   11.14866851341583
H         0.09748428132523    9.57258011565099   10.94924248424514
C         0.09042828497096    7.67434555174225   11.93688023658254
H        -0.89623427635087    7.80634093763633   12.35697656139070

