108
CSD_code = HURJOT | q = 0 | S = 0 | Stoichiometry = C50H49MoO4P3Si | MND = 6
Mo        6.40441707478798    5.39530967152092   14.12516509262762
C         7.36008246982005    4.43383828259869   12.74548439386722
O         7.83314320545385    3.90117110034448   11.84571936469589
C         5.26636067185714    3.83222329954227   14.16473987889309
O         4.63115507769644    2.88092022659830   14.07266017603021
C         5.24905668109884    5.88451118548818   12.65341594609353
O         4.52380115450009    6.03113990407455   11.77622582664407
P         7.59178329358431    4.70339955414988   16.06444730863470
C         9.05006534951475    3.60518108508424   16.05715746863498
C         9.60928898548516    3.18927414965349   14.85862149698481
C        10.71045467073727    2.34996854665138   14.85450663012075
C        11.25612898046331    1.91902576706654   16.05082326021381
C        10.69437484520575    2.32163499654891   17.25347386553447
C         9.59568909021473    3.15850725503656   17.25933842859559
C         6.52339111765735    3.65842804733915   17.10396167927102
C         5.79755668783918    4.07956473627643   18.20986527687694
C         4.92702444171056    3.21097407786533   18.84671400375098
C         4.76759668648057    1.91795464824088   18.38307837566875
C         5.48390935084104    1.48971259059981   17.27545017360399
C         6.35186468990458    2.35416045030653   16.64017046955964
C         8.22809060830801    5.98833426906649   17.24354044720853
C         7.78715378254547    7.43088321397066   16.97646436816708
C         8.40078351296890    8.00503594606558   15.69377400712756
P         7.96858527534366    7.18580185733896   14.09576927974463
C         9.57264468149565    6.58525787667099   13.48338548901123
C         9.70973583296093    6.48770794730419   12.09951530779194
C        10.84045264543930    5.92171519526869   11.54502818093987
C        11.84614984335202    5.43374571398486   12.36537429487166
C        11.71128526329621    5.51240522408472   13.73971683093212
C        10.57928993724345    6.08158669405784   14.29692637022744
C         7.82528224597583    8.67123034374210   13.04432473974463
C         6.79042624808116    8.76690012996991   12.12576506564143
C         6.67158189325072    9.88109267571742   11.31361866725875
C         7.59085158117501   10.90989389612876   11.41614067867563
C         8.63429346280480   10.81619787992828   12.32441523397012
C         8.75833474748407    9.70277048533306   13.13288886792281
C         6.26325849022337    7.59088259860189   17.02549276745539
P         5.28490400359458    6.83303774479434   15.65252593155217
C         4.59085301566507    8.26863531099466   14.77740644854205
C         3.44557919517610    8.00073139296888   14.02818913863909
C         2.87655837095254    8.98016779899400   13.24008102837964
C         3.44841195840826   10.24255862303356   13.18569804135877
C         4.58455941434909   10.51597802895651   13.92513966380606
C         5.15757175498526    9.53463558812478   14.71683326678400
C         3.79877826090947    6.37910972676988   16.60764998306509
C         3.31105693290656    5.08170806541992   16.57355936923906
C         2.18763889603299    4.73815869907519   17.30627183239765
C         1.54466332498254    5.69261499330852   18.07447748179034
C         2.02136283747478    6.99499956156860   18.10449811587163
C         3.14189935574748    7.33977174240653   17.37459404146360
C         8.35159717869973    8.29553501606585   18.13400470478681
O         7.94968821864942    9.63979088098064   17.97132527263838
C         8.92526896756067   10.60204245552298   18.32570996283551
C        10.08504185360085   10.59406911251838   17.44300184976042
C        11.01651880409848   10.52599204051373   16.68046444959622
Si       12.50459321148760   10.54238919348653   15.55894845352069
C        12.68460409334034    8.82678424095239   14.75076423311868
C        14.02096285704261   10.94148660888817   16.64081497229773
C        12.24587169986041   11.88765455240631   14.23660772142767
H         9.17617072459413    3.52896917117779   13.92908463093907
H        11.13961562454930    2.03401641691807   13.91512376570893
H        12.11499502741635    1.26381742164789   16.05063656473067
H        11.11345344550700    1.97635215693232   18.18787456356951
H         9.14792972791670    3.45951683190273   18.19763095098569
H         5.89203761713566    5.08897737393317   18.58505811637111
H         4.36500182301319    3.55328780438445   19.70410138129882
H         4.08419124574595    1.24519023389078   18.87984954994636
H         5.35913969560970    0.48278727869409   16.90541052251972
H         6.90815130578827    2.02965224181715   15.76828089255212
H         9.32270847960365    5.94427202828981   17.19859521055620
H         7.93646561721384    5.70221308030881   18.26060504739885
H         9.49266298082156    8.01889180119050   15.79469552003339
H         8.07507077024949    9.04773659687951   15.61534918663494
H         8.91412136972545    6.85587989775882   11.46314990760455
H        10.93637104833565    5.85234904389511   10.47144448168638
H        12.72889644216190    4.98644690553862   11.93274727487801
H        12.48531137483023    5.12155921056605   14.38491551257863
H        10.48697578459788    6.11998171408663   15.37344882380762
H         6.07258754753835    7.96248139227952   12.05749096661370
H         5.85838677706326    9.94504515273393   10.60591074184094
H         7.49976498228736   11.78425549667420   10.78836005120386
H         9.35377020717439   11.61940288467936   12.39901515657866
H         9.57999276666660    9.63545668322058   13.83392891337393
H         6.03085337447969    8.65944845200434   17.08067531753697
H         5.89983126539623    7.13430225253136   17.95367843445350
H         3.00920809307135    7.00923739772841   14.07342344534337
H         1.98982464745281    8.76132002991487   12.66351201599850
H         3.00812811121374   11.01026185498240   12.56644646516513
H         5.03646139367780   11.49683280541698   13.88242219173717
H         6.04844936766303    9.77363601370064   15.28018294736052
H         3.81801462803693    4.34237156596988   15.97009005566326
H         1.81714020122925    3.72412464503755   17.27519467610739
H         0.66788191023137    5.42706931136206   18.64700414764686
H         1.51335801714524    7.74240348445072   18.69722165341294
H         3.50777761456796    8.35822829868493   17.38698059810402
H         9.44673419712290    8.22253550036422   18.13903613121853
H         7.97721503801410    7.92248424438280   19.10111591898478
H         9.25660118423887   10.45561506727164   19.36697933920626
H         8.41471261025299   11.56821434170989   18.25050989530534
H        13.58150265556727    8.77662175707700   14.13988835702352
H        12.75652025408244    8.04034104065543   15.49657508620077
H        11.84365130375014    8.58883587774090   14.10532231145470
H        14.92948429765691   10.97717321392223   16.04646385930604
H        13.91132163650493   11.90367947942879   17.13202308043623
H        14.16397312912526   10.19315070210776   17.41460223426146
H        13.13394957005147   12.01008184198570   13.62299012398498
H        11.42331052135735   11.63711745026023   13.57412143970556
H        12.02349380988202   12.84908165116254   14.69000686339561

