50
CSD_code = HURKUB | q = 0 | S = 0 | Stoichiometry = C23H21Cl2N2PPd | MND = 4
Pd        4.33721566269411   12.88393814576550    1.68064893167825
Cl        4.41063390787975   14.73766938143188    2.95397784139804
P         4.42058149445522   10.80509844816648    0.81592721009731
Cl        2.23955382894728   13.32286661374730    1.10914542675940
N         6.31504876840892   12.47884985714141    2.10498158553383
N         6.79281072835091   11.32885294552794    2.60640246777557
C         8.14615442271394   11.29582348694873    2.50331565513255
C         8.98286270006657   10.13864706040764    2.91003613283467
H         9.33276638153073   10.24914335150262    3.93647057564505
H         9.85585909945802   10.08383018586143    2.26421024734240
H         8.42328999337568    9.20871738661104    2.83435852414695
C         7.33995120866630   13.19516231741254    1.67317042468786
C         8.52348490383554   12.48012725810675    1.90864474495880
H         9.51999930424145   12.78756150172937    1.66756938657302
C         7.14542880172131   14.51852048716692    1.02744406983113
H         6.11552371333160   14.59627935347358    0.64755658900132
H         7.85658506817805   14.65475462019084    0.21578503720275
H         7.28668886359650   15.31480422578765    1.75787133597531
C         5.93777879952392   10.32790403790838    3.10818481595840
C         4.82705753727895    9.90704179889006    2.35720095019991
C         4.01534571436489    8.90428820245710    2.87705191007589
H         3.15590249530471    8.57634752964683    2.31013748830013
C         4.29850123243262    8.32437089481952    4.10129356132057
H         3.65828508321072    7.54505933980929    4.48533847409743
C         5.39073397535818    8.75159934943643    4.83694153772792
H         5.60308296194967    8.31574913639886    5.80077927139971
C         6.20842162444962    9.75299152270461    4.34231526877068
H         7.04413559921649   10.11043719990770    4.92344107202400
C         5.92574299998313   10.53352557098435   -0.17369654798381
C         6.70090332319793    9.38230592977286   -0.08978440451001
H         6.38724646710510    8.56913971221307    0.55196143483834
C         7.86984877737013    9.28761150658747   -0.82352316392100
H         8.47437443965918    8.39483232013132   -0.75698911577862
C         8.26662757205414   10.33472769157771   -1.64005079113192
H         9.18190023049976   10.25588119429994   -2.20737227797368
C         7.49421453121315   11.48199730415893   -1.72929745200061
H         7.80579305152724   12.29636155978924   -2.36602246930819
C         6.32761826240773   11.58310548160955   -0.99433902557825
H         5.70997030692312   12.47845103317452   -1.03643602873011
C         3.13082242240321    9.79363357888664    0.04449112011162
C         3.37552717172038    8.91587806117178   -1.00548435810398
H         4.37694463555271    8.79874814666724   -1.39537404476587
C         2.32691145760691    8.19690145828087   -1.55143183646134
H         2.51409195260502    7.51335347536112   -2.36672878569507
C         1.04095157681624    8.35481696364843   -1.06033773362023
H         0.22742742243700    7.79328754287815   -1.49519561689088
C         0.79392747857166    9.24196532136891   -0.02401560754686
H        -0.21107638434468    9.37737122247786    0.34611134079823
C         1.83374825597514    9.96730413615561    0.52634974684891
H         1.65480017417575   10.69276514983927    1.31056508095726

