103
CSD_code = HURPUH | q = 0 | S = 0 | Stoichiometry = C52H44Cl2N4Ru | MND = 6
Ru        0.59577894813610    8.48488580912277    8.68966623880106
Cl        0.04031669437897   10.53611022639808    7.81608758681434
N        -1.30303418017296    8.26798079260611    9.39139223322095
N         0.12336174830905    7.46828603445150    7.05440186643136
C        -1.78589903337985    8.74484221431210   10.57407810495045
C        -3.17160212084125    8.38271326051146   10.70170312320985
C        -3.50217800015601    7.68914096950854    9.58654291172985
C        -2.31838441295279    7.62575859852309    8.77539420867681
C        -2.24207352794501    6.98860782442712    7.53321779466661
C        -1.09690070740130    6.92835848504821    6.75172001832289
C        -1.02995457919468    6.27045689956772    5.47838153426302
C         0.23570853820483    6.41973422473117    5.02048504093538
C         0.95516007369295    7.17001034350380    6.00954579559788
C         2.29216410551020    7.52255571672998    5.89252579479155
C         3.02138781228212    7.10006215957534    4.67083558634491
C         3.68378341978761    5.87194959984586    4.65642755726282
C         4.36760625648708    5.49500277166537    3.50934435975749
C         4.39262365721474    6.32115880293522    2.40026266860604
C         3.73198086719222    7.53613986542426    2.42523846723617
C         3.03956596478014    7.94111739523074    3.55746776971322
C         3.64605063444038    4.98689473694794    5.86482385216211
C         2.31808042939832    9.25360508414139    3.59911543795779
C        -3.47174197108938    6.33249236115477    7.02303716084333
C        -3.72634002553320    5.00093380770932    7.35396726969580
C        -4.88388306608690    4.40313903050871    6.87628925098475
C        -5.76988668698263    5.11387409343966    6.08690940331016
C        -5.50757789846581    6.43323396252836    5.76486691192415
C        -4.35848617985207    7.05882679696452    6.22721747908480
C        -2.75678521191938    4.24369857374761    8.20925829433880
C        -4.06006932284751    8.48680192550651    5.88538090765795
H        -3.79169122532873    8.63486033020126   11.54000134587302
H        -4.44727955781882    7.25614933274656    9.32185536563047
H        -1.85379148630009    5.76565442060481    5.01207721558161
H         0.66033480623152    6.06248506978690    4.10231275163163
H         4.88447759016891    4.54659641727039    3.48688098207007
H         4.92887563746670    6.01721229723042    1.51350799326867
H         3.75330889081688    8.17935063606314    1.55751330862515
H         2.61932894437738    4.70986152260716    6.10288136191918
H         4.05230925867987    5.50566428733839    6.73261239079408
H         4.22204932000599    4.08030251642881    5.69796528192074
H         2.44382037104348    9.79362500884609    2.66421437324496
H         2.69377778334775    9.87145123105027    4.41416118548026
H         1.25350850842890    9.09852923207268    3.77284493167036
H        -5.09152980262493    3.37287723970128    7.12647510646973
H        -6.66799846623855    4.63804943383946    5.72181943048853
H        -6.20168773402242    6.98601146931807    5.14859173178050
H        -3.10521970455827    3.22882113598414    8.38279823786574
H        -2.62699310339508    4.73882842212525    9.17115846597156
H        -1.77849020507607    4.20073138418466    7.73111754775448
H        -3.12956901373120    8.55764429818483    5.32247867805504
H        -3.93832735170527    9.08037720825263    6.79090951681640
H        -4.86111674858760    8.91703528243909    5.28975767927522
N         2.50324407937794    8.71792197873717    8.01315638939990
N         1.09154915533576    9.55045696637843   10.40444664323602
C         3.00418873609435    8.25277625276908    6.84905172713407
C         4.38797808123482    8.61907279126677    6.72999487186885
C         4.70281158386669    9.31419134660303    7.84884437114738
C         3.51257315383076    9.37373675636407    8.65339679071322
C         3.44286432482036   10.01008875791488    9.88648516948474
C         2.30093771331960   10.08256612296793   10.69350489386669
C         2.24323397898989   10.74098353648346   11.96552408481434
C         0.97444691993777   10.58832530259234   12.42673767638827
C         0.26301697926595    9.83816838720943   11.43378255642788
C        -1.08429629660712    9.46875702558733   11.52980679029812
C        -1.81522025390887    9.88568476152067   12.75199565162053
C        -2.47545749142915   11.11496482436037   12.77164263965649
C        -3.15145142501682   11.49144487314309   13.92352859953930
C        -3.17059163182151   10.66416907508837   15.03191388505267
C        -2.51284016827420    9.44774158081301   15.00105182910691
C        -1.82806087129999    9.04276885196628   13.86413400143013
C        -2.44952140451650   11.99796039308031   11.56159632706829
C        -1.11540055175999    7.72589900668478   13.81348831494827
C         4.67320456645550   10.66704998947405   10.39297005214904
C         4.92297333765751   12.00046696751698   10.06565466359494
C         6.07595090244156   12.60213609613884   10.54960868938744
C         6.96156557653910   11.89377724292185   11.34156014129747
C         6.70412885346988   10.57234132150259   11.65908394623019
C         5.55980078341609    9.94248338296748   11.19074201380093
C         3.95696623824717   12.75295377833514    9.20239009690187
C         5.26857267577048    8.51102640834097   11.52348211482954
H         5.01604879362722    8.36942211840547    5.89695553968639
H         5.64385054008331    9.75142342165091    8.12110058843066
H         3.06638349761004   11.24701638160903   12.43159773832732
H         0.55108219245579   10.94412447427528   13.34599688329542
H        -3.66613760212116   12.44091169733638   13.95046969668549
H        -3.69996245283337   10.96839702447602   15.92270420064017
H        -2.52948257618333    8.80362430994498   15.86820183490430
H        -1.42366829714463   12.22940342204541   11.27687447990478
H        -2.91582865224270   11.49655166611722   10.71378489806800
H        -2.97900277277521   12.92825648238626   11.75058939773474
H        -1.18979881833371    7.20924700577699   14.76694123654542
H        -1.54302264143419    7.09095479321929   13.03782173105427
H        -0.06249455923108    7.86764309968537   13.57201460005319
H         6.27969593259394   13.63402567920238   10.30296714426566
H         7.85552874836514   12.37307698158625   11.71227108728931
H         7.39780737655164   10.02140828592696   12.27748616263611
H         4.27463050227729   13.78472317996403    9.07555069960469
H         3.88171425938373   12.28751403854607    8.21984247132905
H         2.96030779939495   12.74371762285419    9.64237502508251
H         4.31440444260859    8.42451520651391   12.04247516882613
H         5.19815606811555    7.91437796338346   10.61437454942971
H         6.04916993659420    8.09453074885244   12.15494124463997
Cl        1.25118180102971    6.63763007445548    9.88856917868883

