90
CSD_code = HURWOH | q = 0 | S = 0 | Stoichiometry = C37H46N2NiO4 | MND = 4
Ni       -3.96083741629901    7.00081473077933   11.14765428932615
O        -2.58973472333278    6.44327964951008   12.26393069335754
O        -4.70720708321551    5.30549053736197   11.29528551144155
O        -3.43451266275353   13.60828197806091    9.31605256968979
O        -5.26008266740955   13.60675790088819    8.03514128246641
H        -5.00763361365197   14.53416824597673    7.90749241708335
N        -3.28318044905759    8.72355295760298   11.05337779540177
N        -5.27336929526108    7.54840522860847    9.95129989048278
C        -1.39213411141686    8.47229486249254   12.54946223253744
C        -1.59346258357482    7.07071633040474   12.76776021409985
C        -0.62382485484779    6.38868373778084   13.58119321562702
C         0.39619704674747    7.11326502955968   14.13542408013760
H         1.11452029186001    6.59886674041622   14.75044140683223
C         0.58071704667816    8.50256428911157   13.95569653314201
C        -0.31288232544815    9.15530503516579   13.15856448952964
H        -0.22574508713185   10.21160837478013   12.96072851151009
C        -0.75146523199277    4.88613631910663   13.78574638402085
C        -0.66760594616426    4.20095384093738   12.41501818827695
H        -0.77764872905467    3.12474031170902   12.52562097129361
H         0.29602677957429    4.40592735367678   11.95169405836173
H        -1.45197491888354    4.56339612881204   11.75834216948795
C        -2.09798879153673    4.58131740569504   14.45279446879803
H        -2.16282268842137    5.08484411665112   15.41569902161504
H        -2.20048998425200    3.51076983460926   14.61376819597071
H        -2.91497334219943    4.91881231566293   13.82533198695052
C         0.35695957192822    4.30675131843091   14.67106003686684
H         0.33263161088539    4.73799987273425   15.66962960170729
H         1.34008652896885    4.46608819972786   14.23317221543827
H         0.20674183047802    3.23341731909975   14.76812980240826
C         1.75517945039075    9.18119686699325   14.64160236245283
C         1.81464385037216   10.68189769348154   14.34441257843632
H         1.93842557432697   10.86449883401668   13.27959019593733
H         2.66509846268363   11.12148977272009   14.86155008847088
H         0.91457576065472   11.18435992365415   14.69066840419969
C         3.06338398541984    8.54454671869027   14.15177745528395
H         3.11027735224093    7.48810404803738   14.40070491778387
H         3.91588281423259    9.03951842278656   14.61218426225833
H         3.14788406613162    8.64427392070339   13.07168101102364
C         1.62335763477272    8.99889386479429   16.16010350189191
H         0.68796949061129    9.43066020531804   16.50980305439944
H         2.44566600075166    9.49646021641743   16.66997420458701
H         1.63795229657814    7.94867790148245   16.43778107909059
C        -2.25372221060432    9.19910660797498   11.71238908473264
H        -2.01744436021246   10.25549476309767   11.61107784583091
C        -6.43167401203699    5.43738533130911    9.67132383785397
C        -5.70419597919155    4.76316579638104   10.70804496846950
C        -6.14018812498079    3.43662944528145   11.05620400020839
C        -7.14732033103968    2.86424657723795   10.32930876056634
H        -7.45773340299499    1.86494076876921   10.58200779950448
C        -7.82073490359063    3.49551107811051    9.25778165722082
C        -7.45986782602933    4.77538426541873    8.95784830745249
H        -7.94951410975176    5.33063906456695    8.17368685571909
C        -5.46952867808794    2.71661419885073   12.21670471379916
C        -6.07317433455944    1.33523237316486   12.49112578345540
H        -7.13110465386140    1.40567849539385   12.73534805688915
H        -5.56372143322183    0.88999527063913   13.34324518581616
H        -5.94272919763640    0.66884076336436   11.64108085901394
C        -5.63839192879764    3.56475086746536   13.48472953489603
H        -5.19317387102826    4.54560491086332   13.35227854762809
H        -5.15486415549023    3.07753373867693   14.32818693015341
H        -6.69509169423422    3.68986965469135   13.71509759600581
C        -3.98179784006163    2.53222799297706   11.89592588876884
H        -3.86235338194492    1.94683000160355   10.98599849826277
H        -3.48645862533388    2.01083354334458   12.71147647422331
H        -3.50556660456978    3.49607598167978   11.75789361298741
C        -8.90377701271774    2.72652596177979    8.51909153170002
C        -8.28693452407179    1.46304191442831    7.90281486667380
H        -9.04267610648205    0.90770205433296    7.35132216462104
H        -7.87454456602793    0.80883186087678    8.66576193268411
H        -7.48668325767810    1.73258171448726    7.21677716867499
C       -10.01339179944119    2.33706340284245    9.50569894836030
H       -10.43342552022934    3.22725891767672    9.96924366729560
H        -9.63798054473796    1.68869199202447   10.29229915226978
H       -10.80985904495855    1.81057349219550    8.98402074186839
C        -9.53478528071552    3.54784553296159    7.39152443131373
H       -10.29319853788476    2.95173762699904    6.88819909386280
H        -8.78914920901331    3.83525672361107    6.65392687659848
H       -10.01529375763902    4.44210694347121    7.78157705870148
C        -6.15763476751845    6.77680060879417    9.36035807449916
H        -6.75790411658061    7.19857937651790    8.55704479227563
C        -4.04636348781511    9.54376327300269   10.21989223787714
C        -5.15645493022496    8.89402866186493    9.62323237629871
C        -6.02622981460735    9.62567604975931    8.80973175219874
H        -6.90297171230396    9.16734523798430    8.38051973236803
C        -5.78842985001983   10.95802370283765    8.55400283953740
H        -6.46000399739781   11.52078852372888    7.92609591362530
C        -4.67496029551487   11.58949400762409    9.10872055593172
C        -3.81229469767495   10.88382632214996    9.94115142395687
H        -2.97363369357193   11.42735671857621   10.34636635389007
C        -4.37566875629492   13.01041953415621    8.85221616378150

