92
CSD_code = HURXAU | q = 0 | S = 0 | Stoichiometry = C37H46Cl2MoN2O4 | MND = 6
Mo       -1.02783675697356    0.62483560350311   17.50214419538027
Cl       -3.18498272564703    1.66262916214970   18.10333916365958
Cl        1.13408550795958   -0.44765978028955   16.88657767363915
O        -1.40444113114593    0.73334009635692   15.79834039373163
O        -1.50049789485451   -0.87026818798509   18.27570057215259
O         1.32001587751496    7.07461815404366   18.50531110334245
H         1.58455270067720    7.99876376045383   18.63389643531077
O         1.59060826804095    7.01317668105162   20.71763417546649
N        -0.19984054048257    2.41279776068474   17.16966651857690
N        -0.28591645633409    1.02969173994712   19.31620405978665
C        -1.23099108940938    1.35370002674547   14.67009107211446
C        -0.43140895982732    2.53163148789700   14.74625586920908
C        -0.16055748953554    3.25176287067823   13.56474167351258
H         0.45195716063007    4.13383868124390   13.65198773663170
C        -0.66598412796733    2.84743453009631   12.35443290123030
C        -1.46243445732241    1.68717816100221   12.31704609116816
H        -1.85322105981149    1.37710795347617   11.36374816830644
C        -1.76134911137970    0.93071384954506   13.42885557085877
C        -0.40456164884488    3.59255075234619   11.05455281346436
C         0.45329562655477    4.84375666657212   11.25975133485321
H         0.60411769661234    5.33951800300251   10.30319303620838
H         1.43031632060231    4.58672120959858   11.66139776629801
H        -0.03622436093340    5.54737761352519   11.92873782145097
C         0.33354989051512    2.65878147028915   10.08509896194771
H        -0.26227728824097    1.78336992194494    9.84332906819208
H         1.26895970571620    2.32312933750041   10.52704638713116
H         0.55730794043970    3.18374276356414    9.15914349551397
C        -1.74461532642583    4.02748601327156   10.44454469942090
H        -2.29135482062045    4.65294458854895   11.14669285953883
H        -2.36640272810852    3.17316198299159   10.19328971034551
H        -1.57170364520493    4.59879652470626    9.53530565486017
C        -2.60711051469931   -0.33248706767230   13.37801829836824
C        -1.73564980143068   -1.51667037864768   13.82095183536532
H        -0.90141830535996   -1.64633428974102   13.13425089551342
H        -2.32427588247067   -2.43133116613611   13.82744556723240
H        -1.32978021425027   -1.36044537160915   14.81994052402226
C        -3.13801404925879   -0.63008706343870   11.97214243918698
H        -3.76655476553245    0.18021031156886   11.61005819830608
H        -3.74173623442127   -1.53446386204114   12.00254302098373
H        -2.32426808790333   -0.79634757264298   11.27016853888825
C        -3.81420047629930   -0.17325597464988   14.31489672542567
H        -3.50878823098104   -0.00113383178698   15.34672470299652
H        -4.42567756078193   -1.07269040601177   14.28827400424085
H        -4.42607841983464    0.66894112731203   13.99743563277684
C         0.05125133550552    2.97929923647497   15.99381185904790
H         0.67445290891826    3.86815216562792   15.96720995782796
C        -1.42229821548871   -1.64759608841590   19.31185764358826
C        -0.68502427592313   -1.11422905912241   20.41079691594445
C        -0.53065834454323   -1.89819994101507   21.57403051803482
H         0.03465466269624   -1.47192172262102   22.38618661125365
C        -1.08818813413446   -3.14772236710130   21.66837511729924
C        -1.81149867872512   -3.64270718972415   20.56529585052647
H        -2.23909750135193   -4.62668186203307   20.64644875505315
C        -1.99299519434600   -2.94003552955596   19.39528256970260
C        -0.96135619362869   -4.02235755261243   22.90618918407911
C        -0.15531230172247   -3.34806074060980   24.01939334477580
H        -0.63076571154479   -2.42503885534460   24.34214185697404
H         0.85932710417810   -3.13409760086899   23.69270666089724
H        -0.09781099489143   -4.01358072236275   24.87803101205598
C        -0.25156428517104   -5.32933066602849   22.52613541699672
H        -0.81899102563017   -5.89330847782052   21.79152293718003
H        -0.12328699873021   -5.95353022486771   23.40759205434375
H         0.72957140811848   -5.11524967399406   22.10838354843647
C        -2.36433025089150   -4.32742888678285   23.44983494499537
H        -2.29108470441386   -4.92620412419934   24.35490932226416
H        -2.96213011126157   -4.87654923416758   22.72815834939486
H        -2.88343858811427   -3.40196502686150   23.68905123647300
C        -2.73936288518137   -3.49648348952992   18.19239454567071
C        -3.33615084376850   -4.88208794016553   18.45871963401018
H        -3.86459007807323   -5.22006448722747   17.57004293860621
H        -4.04770332397988   -4.85149333964018   19.28058480413743
H        -2.55984382050389   -5.61029552902807   18.68118521395495
C        -1.74464508521431   -3.61929356827487   17.02857399790575
H        -1.27792712832322   -2.66152337113900   16.80001361608435
H        -2.25427876344219   -3.97614578531712   16.13641670190306
H        -0.95627501132584   -4.32519159172979   17.28252847415637
C        -3.89107090790499   -2.55110205369233   17.81912552164081
H        -3.53353150585344   -1.55348139968695   17.56535877925798
H        -4.58641416113559   -2.46107514847075   18.65147907085894
H        -4.43040971175634   -2.94581832015698   16.96066372969885
C        -0.14520711008300    0.18417255215102   20.33727051670867
H         0.43206787858244    0.50337465554279   21.19937627993614
C         0.21091072953842    3.10765097436057   18.31916888971880
C         0.15896429606997    2.34262646877965   19.50147816003204
C         0.46387923286237    2.94482345812757   20.71915417643238
H         0.37727035299486    2.40377101209777   21.64752870255344
C         0.84911744551673    4.27232359219402   20.76650040617849
H         1.09287490878181    4.74388455337752   21.70565337763282
C         0.90399554979056    5.02686390704923   19.60283726331064
C         0.56412782670676    4.44481994307156   18.37924986390948
H         0.55811198886656    5.07738526960765   17.50711242558449
C         1.30105168656297    6.44616992876521   19.69342987655152

