63
CSD_code = HUSCIH | q = 0 | S = 0 | Stoichiometry = C26H26N4O4S2Zn | MND = 4
Zn        3.21206797806353    2.11359475118195    0.69987582230778
S         2.95999353443367    2.20963607972503   -1.90324690249028
O         2.32580022775219    1.43888200092169   -2.94624091147917
N         5.12959790998301    1.35241662870283    1.36860758705632
S         3.47307833492546    4.64175741304158    1.13450871568806
O         2.03834134288799    2.91321760001216   -1.01624998220541
N         3.79423951989286    1.25985956226762   -0.90715250591661
C         5.88272025637013    1.11345653916829    0.30240150268351
C         7.85385304863674    1.01175362023726    1.65749042300464
H         8.92063033663354    0.88252663272568    1.76748605588445
C         7.05389126800328    1.27199315077700    2.76409718759696
H         7.47806604493897    1.34928157575932    3.75259212330647
C         5.69546890962392    1.43286435099086    2.56666261138946
H         5.02311392644211    1.63799487079182    3.38761310818309
C         5.20092677105017    1.06221220653590   -1.04070165564080
H         5.42197446656495    0.08516599928845   -1.50536774000966
H         5.66174785865506    1.84120675070482   -1.66644675152725
C         4.00406012680921    3.40241494247969   -2.74067777302771
C         4.84383323746179    2.96440453055121   -3.74940318093098
H         4.84213005569385    1.91830480617657   -4.01643349083193
O         2.60826279795481    5.60195620391893    0.49875294612321
N         1.27934246612229    1.40822034243407    1.16269122013593
O         4.47309844582804    3.96182002190606    0.31525317511401
N         2.72712209159304    3.49559928733187    1.96792134306352
C         0.56140843481098    2.44528848526423    1.57797315699602
C        -0.82847271717734    2.44517285623795    1.49875510342832
H        -1.38424116618285    3.30158404172444    1.84913451691689
C        -1.47061718808808    1.35716612661185    0.94046022865313
H        -2.54659442387140    1.34375473413647    0.84535643757166
C        -0.70662224884163    0.28824150830927    0.49037578861522
H        -1.16741045704456   -0.57410992893837    0.03602111847733
C         0.66622686370310    0.36042800841646    0.62473482349332
H         1.31151060748119   -0.43752205269315    0.28719184212836
C         1.30795001987274    3.63244138754036    2.12883165151046
H         0.96529899727805    4.52968579353794    1.59706689794099
H         1.05714724565514    3.74266275438496    3.19617466049360
C         4.39492704417103    5.52281862660978    2.39953103631730
C         3.85893508208722    6.65749681609242    2.97745248327012
H         2.92581092425186    7.04090101442851    2.59600962952202
C         7.25975599267537    0.92652814841609    0.41399704250953
H         7.84595106575979    0.72919505679334   -0.47061191462384
C         5.64397583641157    3.87589794501295   -4.41721327327775
H         6.30433509999949    3.53666482516463   -5.20287854973977
C         5.60026489718173    5.22632603271061   -4.08916524489776
C         4.72735081791663    5.64720822943086   -3.09078901974286
H         4.67229753333039    6.69667615166050   -2.84018359820252
C         3.92615217743462    4.74218200531497   -2.41584552429212
H         3.24673205884804    5.06029000142320   -1.64261938067121
C         6.44966234297020    6.22120568728398   -4.82168445036680
H         7.28701858688178    5.73295173451459   -5.31404434984340
H         5.85513149801917    6.72634648140887   -5.58312608806885
H         6.83079981573552    6.97818191594721   -4.13992490160767
C         4.52944074849821    7.28432018852465    4.01430101771889
H         4.11176288550147    8.17400476215300    4.46331781333101
C         5.73545464170957    6.77959877228714    4.48535277380036
C         6.26118144420199    5.63567949107721    3.89077000260733
H         7.20114132375078    5.23786660594453    4.24647564515439
C         5.59479036678852    5.00847359470620    2.85429812868337
H         5.99143136102342    4.12659622468700    2.37703137064637
C         6.47394688367714    7.45652411817579    5.60010589022853
H         7.35555008084965    7.96461287949168    5.20978605522525
H         5.84559991571268    8.19294222272978    6.09373951035547
H         6.80895465068523    6.72857688581810    6.33630874225136

