69
CSD_code = HUSDAA | q = 0 | S = 0 | Stoichiometry = C28H30N4O4S2Zn | MND = 4
Zn       11.16175214549801    0.01677784655006   12.17356957186831
S        10.91688318704787    2.58911715925933   11.58185473762235
N        11.64641426220273   -0.15165476213801   14.30697885635523
N        10.52282602682106    1.70465882980965   12.83208153840938
N        13.25929554776261   -0.19725836409096   11.37505113027832
O        11.31581434950462    1.62769950995517   10.55292457841894
C        11.32948677469492    0.95700449891923   14.96730111809967
O        11.87485827779209    3.63540434922131   11.88181185369192
C        12.06827313665512   -1.23162543596086   14.96500523225587
C        11.44112719832417    1.03944575222056   16.35148310695165
H        11.17875813976478    1.95446867834706   16.85884211141143
O         9.01345830965806   -3.09355534733429   11.29074787644241
S         9.52982259673898   -1.77469650805250   11.01118646728693
C        14.22756824303320   -1.09078126863381    9.39533024242549
H        14.17395101914778   -1.80786578176823    8.59080778059778
N        11.09504969070654   -1.66114800265062   11.27939724259627
C        12.07485400950906   -2.02630923925253   10.30940542808261
H        11.65594915996749   -2.02174415656267    9.29187334440074
H        12.46372545547793   -3.04182504671133   10.50229397901926
O         8.98169569957434   -0.69792066522114   11.82765780249184
C        15.26574352800377   -0.18046353972570    9.47867854401475
H        16.04604869156976   -0.16562293484112    8.73172825079181
C        13.23233357395808   -1.05808991338563   10.36387201625261
C         8.29438842634829    2.53252803520958   10.85878608809544
H         8.34777748771247    1.50806289139785   11.19481447737670
C         8.21932233203692    5.18360856207790   10.03874593755717
H         8.19135485458819    6.21623958072695    9.72139329348446
C         9.41660252079633    3.33506252576063   10.96053066484933
C         9.13889426498013   -1.42778086524316    9.28881448002935
C         9.38971072624401    4.65489538951035   10.55768824013639
H        10.28587034449692    5.24719564069492   10.65723021437500
C        12.19609758532045   -1.22158672214288   16.34977469108493
H        12.53397872018285   -2.10568442349533   16.86725089124618
C        10.82351262840955    2.12430855258713   14.15987572248946
H         9.93070293344706    2.53021035894112   14.66072586990590
H        11.58864925946737    2.91687789378280   14.14219912383398
C        11.88131443508424   -0.06880707056212   17.05103742420681
H        11.97325238340324   -0.03872727987016   18.12673717189543
C         7.08066294071375    4.39568861185133    9.91738018893816
C         7.13161850469125    3.06782634422818   10.33472948551802
H         6.25036972046443    2.44912011606490   10.24640032484814
C         9.48927914655182   -0.22041767862711    8.71593076672661
H        10.05061175381895    0.50395679564788    9.28483998790050
C        14.26296769214939    0.67144921984875   11.47927984597092
C        14.25008132031319    1.60818922552561   12.63727034899572
H        13.59532284962333    2.44857110413488   12.39862612051393
H        15.24669723191908    1.99050547955256   12.84383400299051
H        13.85040971889405    1.11341393619504   13.51867257407207
C        12.40968625478955   -2.43162247855349   14.15329392850044
H        11.62193581569680   -2.61156750253271   13.42388976728967
H        12.54878029337797   -3.30573644560918   14.78343972161325
H        13.32416636163370   -2.24256872745617   13.59264760821118
C         8.40146240415742   -0.89324798712646    6.66679259065862
C         9.11753109933863    0.04042529379475    7.40637340436292
H         9.38801999499659    0.98557798367353    6.95796117345585
C         8.06585364966922   -2.10637087439175    7.26222239896522
H         7.51057111329800   -2.84091640068808    6.69666269264501
C         5.80822231381563    4.96584519028567    9.36749260394468
H         5.12900538893915    5.21304613735341   10.18353370855180
H         5.30830176052785    4.24363429126313    8.72592716088070
H         5.99980978641834    5.87230393024932    8.79893401906962
C        15.28676051648701    0.70982581766663   10.53779890064106
H        16.08196480432795    1.43218469972982   10.63692169100019
C         7.98318030716028   -0.61000788519791    5.25561494212516
H         8.31152334140602   -1.40881180804413    4.59264476417168
H         8.40099459371240    0.33020350379081    4.90591173120755
H         6.89715218084994   -0.55176781666163    5.19103672752039
C         8.43152432249279   -2.37358257514085    8.56850541655432
H         8.17661489185231   -3.30166822816503    9.05524430183346

