61
CSD_code = HUSFEG | q = 0 | S = 0 | Stoichiometry = C18H24F6N4NiO6S2 | MND = 6
Ni        8.24506789446151    2.72032199890562   10.86139698140141
S        10.04666060775001    0.23732374651516   10.34996038380836
S         5.46857117616824    3.56583314113304   11.68738560133440
F        12.59350375516270    1.03331421186927   10.02047374671695
F        12.44148291132334   -0.77193742372706   11.19668296263604
F        11.91858889198324    1.13459122790824   12.06014504819330
F         3.90323011759527    2.36657880447236   13.48292155404207
F         5.89977242088841    2.70110868219172   14.21780587964274
F         5.51275113479529    1.10716806645706   12.81346626742267
N         8.04076587244884    3.48934659893943    9.03233929912745
N         9.68715805599927    1.74640250342454   10.08319909262421
N         9.64563638715763    4.39109769272160   11.72724486981169
N         6.99549108771206    3.92827115939345   11.57081344231507
O        10.17205383878460   -0.57759673089098    9.17662638521532
O         9.40236376773668   -0.31864940184550   11.50664348771449
O         4.68388639661459    4.70848529155054   12.05671667408061
O         5.02696933671948    2.79463387605893   10.55367197873885
C         7.05406355544141    4.26228820639875    8.58314185300786
H         6.32152403426135    4.57812953177857    9.31228968439444
C         6.94986431955200    4.63610938071258    7.25554543236748
H         6.12996255211481    5.25730971429859    6.93377775038446
C         7.91047788929990    4.19339246106701    6.35683206664744
H         7.85632477360721    4.46239460494531    5.31257097937031
C         8.93435319411335    3.39254638808234    6.82587666721977
H         9.70008886553565    3.01861422848169    6.16450777334893
C         8.96808709055989    3.05272862711558    8.17520280303986
C        10.04233663511554    2.18647639556871    8.74946694328917
H        10.20483840614745    1.31078235944208    8.10963343657864
H        10.98222942814165    2.75987119005285    8.77718137608240
C        11.85478601708285    0.39421026290357   10.94297096884852
C        10.94902328933576    4.62193954748348   11.62526196268122
H        11.52570328221092    3.85820768974637   11.12244324790002
C        11.55639863105576    5.75616557948432   12.13478105676563
H        12.61977659321988    5.90187401857881   12.03250737810657
C        10.76332952215973    6.69474808363359   12.78014860663619
H        11.19739638404287    7.59473965743484   13.18986369882844
C         9.40625851550323    6.45537266515562   12.89146562334450
H         8.75670885245245    7.15811696487328   13.38951876168887
C         8.88010882189159    5.28395333704549   12.35152825677686
C         7.42098490218991    4.95845769313843   12.49600146465075
H         7.25071732695663    4.65040576521599   13.53798287067262
H         6.81146038082716    5.85432137247719   12.32335976528797
C         5.18971484443234    2.35728739930869   13.13448743938651
O         6.90227006987759    0.92666122931760   10.11304648115700
O         8.19239409503474    1.71822106458702   12.66810412642756
C         6.83106819456295    0.09271387598887    8.97113732808982
H         7.77796402578812   -0.45108341858900    8.92347414804154
H         6.73038146818947    0.70448663375952    8.06067933763181
C         5.66106916302687   -0.87675680823954    9.07555899618373
H         5.63592890482793   -1.53257889785948    8.20975472321729
H         4.72402854158527   -0.32539530857830    9.13039060581885
H         5.76366538476232   -1.47958965729839    9.97358603941549
C         9.04292003056730    1.89160328843817   13.79750588294547
H         8.69795826058488    2.79216201060413   14.31386998098259
H        10.08140019693522    2.04030208376546   13.47997720691421
C         8.94574297593304    0.67837162253318   14.71164746707382
H         9.57770813903005    0.81440385711315   15.58464244810487
H         9.26971994227123   -0.20909883839568   14.17283844566998
H         7.91848660494648    0.53687958322678   15.03726584930132
H         8.39006801114021    0.81871322100707   12.31694263994561
H         6.03625423038555    1.37094788911608   10.21033677094809

