81
CSD_code = HUSHIM | q = 1 | S = 0 | Stoichiometry = C37H40N3Pt(1+) | MND = 4
Pt        0.47943747635952   12.57209706089045    1.64092137764217
N         0.31011470714569   11.74945058202118   -0.16634823726066
N         2.24358360462404   11.84996808963633    1.49861231624642
N         1.18315385293384   13.17397669070386    3.40544712670553
C        -0.73895741734092   11.72865208580130   -0.98489681098579
H        -1.62872719145553   12.22919413628076   -0.62496238825410
C        -0.71675647960577   11.11182681997294   -2.22207066541127
H        -1.60770841092977   11.13944516582664   -2.82447304408298
C         0.43885491113833   10.47189829796775   -2.66734912483442
C         1.53124260140384   10.49976695372700   -1.80015393227906
H         2.45603215355833   10.02362551427219   -2.08107312735279
C         1.45618870769032   11.13211797967425   -0.56998646578711
C         2.57324988449657   11.19020282427781    0.38531061569334
C         3.85018850994856   10.66392973012415    0.25746097923634
H         4.12601168918432   10.13111996338816   -0.63645712330354
C         4.77898824610144   10.82757366131230    1.29192620651493
C         4.38075296245072   11.52502379261779    2.43353082189431
H         5.06425435355808   11.67202888056919    3.25032839866489
C         3.08940394546622   12.03430305586457    2.51321393536025
C         2.47430620073039   12.79591690666648    3.61044963190165
C         3.14278910310224   13.12266654062736    4.78263913862656
H         4.16333376539975   12.80155852277218    4.89854796385843
C         2.51299991637959   13.84919621627810    5.78879663827524
C         1.18785406292221   14.21971568742681    5.54489349514049
H         0.62798023373312   14.78332782291941    6.27212263859614
C         0.56951564226106   13.86989048024014    4.36238938488548
H        -0.45542011277767   14.15131604397252    4.15798641813426
C         0.54657576723510    9.77558903920211   -4.00613966660189
C        -0.75506853494709    9.85060727660746   -4.80628173529720
H        -0.62261305823499    9.33713660235384   -5.75497904249136
H        -1.02657508958195   10.88112206773025   -5.02189748829180
H        -1.57155305129153    9.36522142962222   -4.27715587757493
C         1.66169036099176   10.44776367166532   -4.82133811654120
H         1.73620587430566    9.97421844871484   -5.79636490241016
H         2.62780509449026   10.36344300573691   -4.33123256738405
H         1.44117983287318   11.50258212726136   -4.96910850838065
C         0.88960977129448    8.29740441389473   -3.76744963976007
H         0.94290829639414    7.77748648252406   -4.72000622578976
H         0.12189531794462    7.82231616996847   -3.16081680307271
H         1.84636745541950    8.17992639512545   -3.26604817370382
C         6.17172583208895   10.24837425813648    1.13574513986238
C         6.83452105127653   10.88316747277677   -0.09612877247272
H         6.28733884674082   10.66362275134954   -1.00872986333077
H         7.84342078670075   10.49571677950723   -0.20826982149010
H         6.89386766391888   11.96359442416370    0.01753684911267
C         6.05664054774881    8.72851829042253    0.94518187584676
H         5.49688505098878    8.47381995840271    0.04945113679107
H         5.56173635220103    8.27360811530854    1.80070586144030
H         7.04921711565752    8.29575926163508    0.85504907973406
C         7.06039721837483   10.51576531291113    2.35271060925129
H         6.64969252774309   10.05998546713894    3.25101472509040
H         7.19841258391340   11.58240208304246    2.51581829284047
H         8.04083706260117   10.07942203376143    2.18077831349418
C         3.19235662647338   14.23660304080720    7.08329217968103
C         2.40051045295709   13.63281970564711    8.25278844702236
H         2.88388694786847   13.88998770387400    9.19129672310592
H         2.36619044670477   12.54855751199265    8.17093565303053
H         1.38170861091747   14.00769126926335    8.28379158462164
C         3.19684454671601   15.76893178122196    7.19159108557770
H         3.69538803467614   16.06806599518395    8.10946463371727
H         2.18884467816478   16.17283613126416    7.20722641155275
H         3.73105408326621   16.20905851391111    6.35230763277622
C         4.63674479143703   13.73705702077415    7.16204321628502
H         5.06960114576103   14.04369093085540    8.11053732499532
H         5.24627061230010   14.16289094605684    6.36799363451414
H         4.68271575610303   12.65126683406434    7.11370151426267
C        -1.32778011603082   13.31829253502796    1.78748108443508
C        -2.44686169168586   13.78729202483250    1.88339090651460
C        -3.74615206887427   14.33123965387451    1.99430737692715
C        -4.20790378005300   14.81465801458740    3.22318370519194
H        -3.56232138638396   14.76423975603269    4.08838177530715
C        -5.47405187936205   15.34461424403211    3.33214037731979
H        -5.83270810137710   15.71672304259584    4.28053048056229
C        -6.30872281512553   15.40657098664761    2.21317624182863
C        -5.85040258846939   14.92565885809316    0.98384497638331
H        -6.49863178763107   14.97608733057844    0.12141953926199
C        -4.58508969854091   14.39333549219713    0.87658418899790
H        -4.22854904110774   14.02327266015533   -0.07406690968958
C        -7.60771930946364   15.95231773323099    2.32412734587297
C        -8.71139946534798   16.41637317083343    2.41840773025142
H        -9.67561059923248   16.82180426752921    2.50067029302374

