73
CSD_code = HUSYEA | q = -1 | S = 0 | Stoichiometry = C24H40CoS4Si4(1-) | MND = 4
Co        6.98541223098548   -6.83991703933968   -0.00049742820168
S         7.77436815009388   -8.71503178340285    0.74452642564539
S         4.97001126865385   -7.53459242628550    0.38604340775549
C         6.40639870800326   -9.66956889386275    1.20161435491171
C         5.12306041013371   -9.13084812820833    1.03395617957547
C         3.98116681896065   -9.86547400349751    1.38363753612882
C         4.17482735690414  -11.13619664529613    1.89883785715315
H         3.31472617630390  -11.72936281586490    2.17598830423723
C         5.44732242280791  -11.66869482006682    2.06899545283351
H         5.55089042700984  -12.66476485243644    2.47593665169860
C         6.58517999387115  -10.95635202064279    1.72902475430400
Si        8.33619928629546  -11.63638754152961    1.94205569839790
C         9.36798396769650  -10.58987186853823    3.16111897656231
H        10.34379937641522  -11.03448252731435    3.33598189654684
H         8.86865016291047  -10.49398104446896    4.12129861848569
H         9.52031846033112   -9.59167487492918    2.76695515719086
C         9.23536408224830  -11.81908329440575    0.26752539881619
H         9.37081344429705  -10.84819206422208   -0.19522899801246
H         8.66725556289846  -12.43809771787208   -0.42135639481441
H        10.21530969205988  -12.27148962021064    0.39160843963833
C         8.21373228301612  -13.39290770526108    2.69812309479445
H         9.20526324368033  -13.81184977115588    2.83632841803968
H         7.66032951839961  -14.07042412380088    2.05626196707450
H         7.72708665709312  -13.38052486893207    3.66788259082852
Si        2.27198048568900   -9.09517408960394    1.14021201454600
C         1.91381838671878   -8.70397688187133   -0.69400050189991
H         2.04282532275691   -9.58394847735589   -1.31813236074608
H         2.59144143492228   -7.93968691138599   -1.05687873287057
H         0.89761650044289   -8.34457275498391   -0.83072557928849
C         0.95253939258731  -10.36929939728918    1.69485694649011
H         1.06204184139505  -10.63332305625783    2.74156866247743
H         1.00718578814808  -11.28362631670920    1.11310144763966
H        -0.04374230744090   -9.95920563600365    1.56466743092601
C         2.03467430042507   -7.54570401132951    2.23068552584230
H         1.03097629959711   -7.14166041463044    2.13231306324558
H         2.73688556865920   -6.77147893483844    1.94318799362979
H         2.20167673175694   -7.77137255494715    3.28035821669595
S         6.19910149670578   -4.96208213316615   -0.74311485351019
S         9.00031540443546   -6.14225133098101   -0.38770279926873
C         7.56586143012690   -4.00672694468167   -1.20184487453946
C         8.84898512261224   -4.54557101896420   -1.03485949595939
C         9.99095150251406   -3.81071621610010   -1.38378839589117
C         9.79722191784089   -2.53975042770355   -1.89842944067405
H        10.65728979931956   -1.94650910022744   -2.17548242583340
C         8.52466566488528   -2.00738005715499   -2.06877265388355
H         8.42102142020478   -1.01142173248506   -2.47594018244047
C         7.38683064774296   -2.71986903447541   -1.72896303879433
Si        5.63570334074935   -2.03994497031082   -1.94160344733995
C         4.60163952423816   -3.08759391371091   -3.15775931974729
H         3.62663157796541   -2.64154540508725   -3.33350357830868
H         5.10056010222903   -3.18682744145667   -4.11780815172553
H         4.44750256170575   -4.08453293330519   -2.76113888857410
C         4.73902384663255   -1.85456387321227   -0.26599871629246
H         4.60540634929651   -2.82462748140882    0.19903488581882
H         5.30757635381794   -1.23344907749093    0.42063633474124
H         3.75836147219061   -1.40354308251095   -0.38940115946673
C         5.75790458336054   -0.28472253637183   -2.70067759998789
H         4.76631796840950    0.13393706754148   -2.83932369429030
H         6.31148827228082    0.39394746131011   -2.06020091318135
H         6.24425838804911   -0.29886067904355   -3.67055770698012
Si       11.70017020690116   -4.58108725310570   -1.14072102548588
C        12.05786536627516   -4.97697329303464    0.69258065928319
H        11.92644366719029   -4.09916698938891    1.31925735754539
H        11.38173123325963   -5.74384728737215    1.05276979526967
H        13.07479433230520   -5.33447638045685    0.82892389116001
C        13.01956756492832   -3.30510646934243   -1.69115477730164
H        12.91128071952291   -3.03908994817849   -2.73748475868707
H        12.96357163992536   -2.39196483565077   -1.10765861464233
H        14.01592028122786   -3.71486080712720   -1.56045648534474
C        11.93806083038837   -6.12773567803597   -2.23511964458142
H        12.94125971320671   -6.53289903530207   -2.13631506961464
H        11.23476872941220   -6.90217399981240   -1.95083196370522
H        11.77285752141629   -5.89901327343993   -3.28442173405039

