37
CSD_code = HUSZAX | q = -1 | S = 0 | Stoichiometry = C18H6Cl6ReS6(1-) | MND = 6
Re        9.91689177961107   10.52156512448737    0.69695430489721
S         8.49581257901898   10.42972621220125    2.57713015545840
C         8.57915691748580    8.82316224828039    3.21016496225025
S        10.40615950766318    8.27802408249483    1.25895760992520
C         9.41366261055833    7.85977707420042    2.60957617158880
Cl       10.45692844446492    5.38129449759783    2.41222276391028
C         9.44350920446048    6.56630767518259    3.14383435105735
C         8.67646500485721    6.22272375732196    4.23686114890784
H         8.71750700560930    5.21773719569560    4.62458219513571
C         7.85778638252129    7.17466697877285    4.83253461624965
H         7.25706574149693    6.91927733697232    5.69034167191318
Cl        6.79612809361418    9.62925593505861    5.06542652621855
C         7.81229191389951    8.45455384838848    4.32129492646201
S         9.56270338767258   12.85501653919806    0.70596409906748
C        11.02567373811980   13.59141190822976    1.25746666819779
S        12.02978599672548   11.07467958202852    1.58543545933702
C        12.11480856726414   12.79903005206035    1.67082808503530
Cl       14.60254026790615   12.46905931084667    2.65723416589791
C        13.27119981948455   13.43186245718509    2.14096375506118
C        13.36278441556386   14.80635413114903    2.20273420450745
H        14.26537136352450   15.26657475337176    2.57085348587130
C        12.29148429095468   15.58833191185106    1.78797646834460
H        12.35296884661208   16.66384931836201    1.82664956506352
Cl        9.81714782107935   15.96115780272517    0.81588879477383
C        11.14093061005504   14.98469881260395    1.32618571022531
S         7.96483010756241   10.29079291528385   -0.62641945231885
C         8.46540096396166    9.96583945095076   -2.24727622695149
S        11.03653453761834   10.17189216887541   -1.36146925544461
C         9.83471511067628    9.93839198820127   -2.57994185010925
Cl       11.87272458939972    9.67950933390591   -4.32585458588788
C        10.20170909505021    9.70155210625915   -3.90987229580128
C         9.25480329490481    9.49041461449027   -4.88948274993449
H         9.56673865510858    9.31129188709135   -5.90563481450258
C         7.90467601715401    9.50711378304531   -4.55946934458293
H         7.15534432297237    9.33681064571818   -5.31542358505142
Cl        5.84637437866184    9.76668026440447   -2.85557360875551
C         7.52108461670833    9.74541229553982   -3.25684409601709

