101
CSD_code = HUTCOQ | q = 0 | S = 0 | Stoichiometry = C36H46B2FeN6O10 | MND = 6
Fe        6.78766745049664   11.26951190028986   10.44237213839935
O         4.33266706802214   12.34593367880431   11.42281364213107
O         9.11271853385426   10.28350540498931    9.11698017236595
O         7.03675907107921    9.12847343900076    8.57094634904874
O         6.34575531116976   13.16459483351707   12.52760144918236
O         8.10674799839797    8.75566246857462   10.73018476260720
O         5.78676196197183   13.93729686585079   10.28306659572185
N         6.19769580370388    9.97745052529295    9.20006076544126
N         4.92037798901595   11.37597109646685   10.69173854006343
N         6.68454771886012   13.04466043518022    9.81661762795732
N         7.60898496661334    9.84116224031663   11.35796502200322
N         8.36339265603137   11.36589847625022    9.41275329066608
N         6.94104421200073   12.00791075469093   12.16972297258043
C         9.79744249881392    7.92097570988312    7.38709599520199
H         9.69411608960726    8.85469482902908    6.85612358753411
O        12.59439258627654    4.23517175336911    7.75600145392755
O         1.68264427773895   17.67854985054514   15.27045603818710
C         7.66392796333209   13.48799896559636    9.07894619951069
C         9.19622940688779    7.78886436225288    8.63450888202198
C         7.51883519391017   11.63142083298025   14.55541934940694
H         6.56195421993211   12.06037516374167   14.86342604388957
H         8.26819385536747   12.42108719365526   14.66827914205592
O        11.86705126121058    4.82988152369251    5.62363140633376
C         8.60172300304652   12.47351736260989    8.76746011301553
O         2.94304355952846   19.19136474280108   14.02451593044256
C         4.28843352536227    8.67737421289950    8.29138022728634
H         4.84811643117562    7.74781370551407    8.42396222199615
H         4.39015461593820    8.95778435942373    7.23833919523372
C         3.21453147102313   15.71237393354701   14.14489382182723
H         2.87980569603008   15.65114149963876   15.16847966068032
C         4.91727921110111    9.74362360214048    9.12863532650592
C         4.16336000592295   10.62924240582563    9.93766022432420
C         8.66968877061857    9.04143527504964   13.45571302540137
H         9.53530389587721    8.68376750567364   12.89194889016305
H         8.03016426470103    8.17215243324166   13.63870187918006
C        10.66334873902843    5.68641806955188    7.49699222629755
C         2.15991200075378   18.01591540858528   13.99775566426117
H         1.31502168153371   18.29143512282998   13.33921190334370
C        11.48326155084684    4.54217382348845    6.93939590366345
H        10.88834873835943    3.61000242959848    6.96325591115427
C         7.80255235342082   14.89614894453216    8.59726398815405
H         7.02828576362938   15.08452765361067    7.84681810661050
H         7.60687169050871   15.57576926608579    9.43086064293958
C         2.91035980043804   16.84312760335747   13.40293286759933
C         9.34435711641500    6.57418145979280    9.29833765917109
H         8.88542621465251    6.45540653636236   10.26765956459681
C        10.52736293653374    6.88989351069798    6.82269266139446
H        10.99373578306001    7.00550749728088    5.85696551688996
C         3.93432476317842   14.68007593903950   13.56980310624190
H         4.16530653049113   13.80132903920156   14.15206053957974
C         4.37837254726590   14.74803694759403   12.25323472754225
B         8.36098222099818    8.99320403981822    9.27289146016848
C         9.72976318660372   12.68106122308531    7.80918457619443
H         9.78900364798800   11.81906218108983    7.13992895408865
H        10.66670496870950   12.70563580885739    8.37432043304179
C         7.91391472887528   10.01773291659771   12.61326314826498
C         7.43858014406842   11.25544649609243   13.11111692104348
B         5.21750230754644   13.54769468188449   11.61248814925147
C         4.06490862099122   15.89111548754682   11.52319884486543
H         4.40124047541246   15.95963772395912   10.50022481088405
C         2.81440601797040    8.51109137656041    8.65473277637187
H         2.32505887209048    7.88434125078826    7.90787045724689
H         2.72826351445217    8.01188680007620    9.62168885924280
C        10.06501631978863    5.53474942909745    8.74152576139921
H        10.17928413572003    4.59930696888095    9.27110399420425
C         2.66983177167722   10.67493674388818    9.91370875269318
H         2.34886922182683   11.71933337770641    9.87988182725634
H         2.29434146705183   10.26108018090992   10.85476324858403
C         3.34048609577365   16.92546171612402   12.08459632831074
H         3.11069240193164   17.81134401098147   11.50929584844979
C         2.12919471688980    9.87457629379170    8.73068145993542
H         1.05103372485361    9.74911852287879    8.83976523697871
H         2.31240767359601   10.42045296301048    7.80326891778245
C         9.18782685832185   15.12187492544579    7.99518389037423
H         9.20378168812733   16.07727109526993    7.46880979008222
H         9.93224034334481   15.16430943359655    8.79245010544735
C         9.54201998001317   13.98548040825562    7.03749530574161
H        10.45841695899001   14.22165662966467    6.49475879584159
H         8.73902459191004   13.86799523983854    6.30728008164920
C         9.08050735979231    9.68272428981140   14.77951573334978
H         9.44527310888838    8.91116903990374   15.45905612986417
H         9.89279401742909   10.39144515579726   14.60774713986252
C        12.42576707414058    3.72833944400501    4.94479247394470
H        12.72424045328571    4.09270057303168    3.96391867964877
H        11.68648713380952    2.92602069387136    4.83326458414689
H        13.29740505476066    3.33451915110956    5.47617594561307
C         7.89570641656726   10.41841171715064   15.40330218912347
H         8.14452257585505   10.74489810079918   16.41406354147649
H         7.04486941847402    9.73757987276658   15.46931501311325
C        13.47259119763057    5.32201829143266    7.97048692324369
H        13.78156198444601    5.76851397186425    7.02084547670459
H        14.33869982316989    4.90984721377793    8.48445797652516
H        13.00265274398807    6.09215956096360    8.59045473310448
C         0.77353887676317   18.61678511309673   15.79924626093080
H        -0.13342598867173   18.66685867306179   15.18462171806396
H         1.21916114439219   19.61468076048461   15.85379968301278
H         0.52179318227630   18.26907985702884   16.79913398662027
C         4.15878542884411   19.06046937788572   14.73407179950945
H         4.57912184702662   20.06235769327450   14.79473380449897
H         4.85231190336241   18.39627092300839   14.20860408199368
H         3.98397783351998   18.66910000622522   15.74047045853179

