89
CSD_code = HUTCAC | q = 0 | S = 0 | Stoichiometry = C30H40B2FeN6O10 | MND = 6
Fe        5.87180065338910    6.21743067349956    3.05711916578963
O         7.86171745723108    5.63660976215397    1.12271472398195
O         3.59590489270189    7.86786942336465    2.67910652346574
O         8.05201779063527    4.41360703160151    3.22251112149253
O         3.12171668988820    5.54325641417977    3.23543012892025
O         8.65464930567529    6.77214224465043    3.12741081463829
O         3.94268561977868    7.06412266751304    4.95282656430769
O        14.17932827988286    2.74995199288692    0.09643646804118
O        14.96961916184858    4.88789619648640    0.58334333505027
O        -3.34948350598281    7.51174620203826    4.99443917491308
O        -2.84125205341976    9.71559590412652    4.43279501881267
N         6.66692261379334    6.21831930015514    1.35269576713855
N         4.75508757446211    7.42806334385459    2.14722393245373
N         6.71748889328588    4.56232989317368    3.34557162549754
N         4.38358193721486    5.07257255961840    3.15768445893485
N         7.45151347887736    7.02420562882131    3.68512890217675
N         5.25594888797634    6.99956491328161    4.65160946698840
C         6.79977503473526    7.22439634234073   -0.89886479735084
H         7.84237992304334    6.91733018489680   -0.85336064694304
H         6.73185544919787    8.26979366807226   -1.18857588556795
H         6.29517784571935    6.62187721225434   -1.65399981406490
C         6.17539196105329    7.01103944717705    0.44030214200214
C         4.98110160347264    7.64673904328624    0.88094922351981
C         4.08733290976735    8.46199302445383    0.00634921620868
H         4.00355964022389    8.01130298630284   -0.97918108239200
H         4.48345616685315    9.47110906259857   -0.10614751862477
H         3.10618433707696    8.52799769326023    0.47149279104782
C         6.52480356895841    2.10470457293682    3.48935277193103
H         7.55673985794321    2.11757496011064    3.14544861100572
H         5.93533589908278    1.42903317057229    2.87473693038762
H         6.50884610011689    1.74246054428798    4.51708207943457
C         5.97601249507784    3.49120152666994    3.41711697230279
C         4.58917676276246    3.80923047096167    3.41089243422872
C         3.49372586241485    2.82854208715442    3.66868261959489
H         3.80903116996701    2.08456713553397    4.39484438678309
H         3.21492069216076    2.31977898607207    2.74585206747204
H         2.62224364171129    3.36504289019964    4.03841014984871
C         8.61468164252212    8.20868723565934    5.51750971913961
H         8.58218143336713    7.99414631843798    6.58282836025738
H         8.65280082176839    9.28963805529366    5.38401678868157
H         9.50954916328721    7.77461777661462    5.07873157138224
C         7.41458976489995    7.64282269383775    4.83318357866863
C         6.09232376845469    7.71275508613750    5.35429044022603
C         5.70684772313585    8.50567414003443    6.55923398326111
H         4.62344224188751    8.59105351617039    6.59398486354860
H         6.15688566281087    9.49507511964732    6.52351893683137
H         6.04561305871814    8.00605163337780    7.46650522129446
C        10.17399660383065    5.04592182710762    1.99770551690705
C        11.26927071586619    5.46012832754618    2.74986182735601
H        11.10630510577187    6.11862538069410    3.58877863822793
C        12.55131365775784    5.04701053590840    2.44012845614714
H        13.39313440789774    5.38174113821931    3.02984447862220
C        12.77200651784122    4.20073599418132    1.36121018089305
C        11.69326131936019    3.78544659029701    0.59542403668861
H        11.86686199218064    3.13027910282101   -0.24377996862240
C        10.41388000431226    4.20185834092909    0.91779609392559
H         9.57669513006414    3.87659675047318    0.31934527199151
C        14.19206914157684    3.79555182404706    1.02845344967723
H        14.71389391776225    3.47388887530682    1.94871955577044
C        15.43702032180346    2.14068335564937   -0.08561724553754
H        16.18861326631914    2.86840187917037   -0.40635156896162
H        15.30205666366049    1.38429750207583   -0.85609853426339
H        15.77641423144824    1.66696546912288    0.84347217631639
C        14.44150028319601    5.55316044579434   -0.54653301787148
H        14.23708815973555    4.84668568146611   -1.35631127396700
H        15.20457044134517    6.26313032150483   -0.85924791732807
H        13.51835227567611    6.08503993386658   -0.29499483586606
C         1.56386973812173    7.36562049071375    4.11969670118762
C         1.30612901114223    8.58080761342331    4.74906809059022
H         2.13219863043430    9.23884821342318    4.97119691180017
C         0.02026484170195    8.95400986746098    5.09072076916580
H        -0.16636295750388    9.90204016184357    5.57538791251830
C        -1.05021944310354    8.11582993831429    4.80533042068833
C        -0.81287167981269    6.90832091756095    4.16719740505331
H        -1.64601345735636    6.26115605758896    3.94222421153617
C         0.47977383889629    6.54227917382567    3.83543836841349
H         0.66154451576701    5.60071903824725    3.34063513480614
C        -2.44913573598966    8.57140246776067    5.16258766538045
H        -2.47100553867945    8.92193207692994    6.21121550182296
C        -4.62670581365367    7.76484048231147    5.53382650484672
H        -5.07224797833869    8.66313845411474    5.09585375264732
H        -4.56996151505618    7.89167412930855    6.62168300160282
H        -5.23687861996838    6.89583987311731    5.29612090024476
C        -2.79491358594085    9.55077180862273    3.02960641256777
H        -1.76212828730202    9.46539967101541    2.67678591046986
H        -3.25805696000493   10.44076938859707    2.60825283201900
H        -3.35174476813760    8.66090378419930    2.72192625801404
B         8.68071885701758    5.48125774165168    2.36905260214461
B         3.06112887095596    6.94956863818914    3.74265410579317

