75
CSD_code = HUTGIN | q = 0 | S = 0 | Stoichiometry = C26H43N4SiY | MND = 9
Y         6.55161065888022   13.85613834051435    3.16558717731719
Si        6.36920803544503   10.30336139297660    2.37125302406107
N         5.01073559548156   13.27092249556535    4.58027901671650
N         7.45557116579919   14.42224675954566    5.66450978567865
N         4.86347706203281   15.70716101884565    2.14654416420470
C         3.65286734998586   13.15469536633996    4.46301357185476
H         3.18962760772548   13.04939899077560    3.49384699322396
C         3.04999732914210   13.15737352922753    5.69585497966499
H         1.99966109763435   13.07294664445626    5.90103444147409
C         4.08339201785613   13.28715443508439    6.64144718173053
H         3.97846012201398   13.32097971540224    7.70981501209189
C         5.25972439763697   13.35074406664071    5.93029614977208
C         6.66783863814190   13.43559123110199    6.43433163454808
H         7.16514556989461   12.46056573819198    6.32957407151233
H         6.66035647275514   13.69401179784001    7.50544009717761
C         6.98435710195688   15.76973774011190    6.00290055699861
H         7.20026186833904   16.00919933562396    7.05426107384071
H         5.90566429330656   15.82745953002269    5.85424753804573
H         7.48181256331950   16.50401085362124    5.36748486978856
C         8.86420972084548   14.32171454218155    6.04401104192268
H         8.99702903403812   14.46869367742953    7.12578704414639
H         9.43710265610024   15.08643304763328    5.52140033819033
H         9.25668179555983   13.34158746054341    5.77569383830380
N         7.72849688990152   15.52500803455202    2.45769086604050
C         8.98653731216884   15.97788466834879    2.73803772948936
H         9.67250795803070   15.37540740973037    3.31243314791159
C         9.20495667267408   17.20612889412429    2.16444896424748
H        10.10274843668466   17.79317310469829    2.21573536399859
C         8.01800135175796   17.54475774264058    1.48899683861506
H         7.83140478827073   18.43836909585285    0.92250698677918
C         7.14527463526717   16.49865939561608    1.68495912389610
C         5.76783569452419   16.29300509766905    1.13258275015517
H         5.36833946171679   17.25185861600525    0.76443581825443
H         5.81117625843648   15.59550343907860    0.28519706692375
C         3.59088152170312   15.35691158364456    1.51695014217588
H         3.12747455483454   16.23324280332420    1.04063105950553
H         2.90338098131665   14.97494292840756    2.27118742461717
H         3.74599292341866   14.59200176240161    0.75680749927972
C         4.60073063460296   16.71312305798034    3.18154091234092
H         5.54641550081835   17.08965102056030    3.57241821186002
H         4.02014986491501   16.26731035804143    3.99094737893646
H         4.03576657993222   17.56220878704593    2.77025125470903
C         8.14845939591947   13.08906090557349    0.16292526192778
C         9.16587451016603   12.83009229797944    1.13205228551032
C         8.60324833618206   12.16834807980420    2.20022778756124
C         7.16556237556556   11.97374295065267    1.94466295427943
C         6.95424125303314   12.58164928661779    0.62320417852420
C         8.40106521316899   13.84407243278584   -1.10233456751516
H         8.64768224109506   14.88303057195730   -0.87589819533635
H         7.53371344321345   13.82782423761977   -1.75743590833180
H         9.24374098006536   13.41294951085726   -1.64158121338617
C        10.58643296504411   13.26092742374776    0.95843939522003
H        11.00905802932501   12.82225587179252    0.05346162589179
H        11.20071293195937   12.95575939007313    1.80232477750901
H        10.64119915273585   14.34620966704420    0.86079088095840
C         9.33785082894564   11.60266341029959    3.38525965746691
H         9.70675380144100   10.59836438512335    3.16327422502912
H         8.68610700933788   11.53609163364316    4.25762975495574
H        10.20016026534619   12.21959958421980    3.63774557191823
C         5.65825036535824   12.52645692967538   -0.13760703288186
H         5.61782094648495   11.62526335008870   -0.75390810866646
H         5.55990708119319   13.38088067832404   -0.80729977395059
H         4.80413397846120   12.50985140441117    0.54004143736732
C         7.26323766714700    8.92488722115503    1.38624491647117
H         7.19377692162262    9.10440234623197    0.31813962412852
H         6.83309672808520    7.94900812480878    1.58802358815469
H         8.31809793594975    8.88043786131927    1.63632455106442
C         6.45758095354814    9.88126628052063    4.23979771317867
H         5.82758786995704    9.02238553815153    4.44931378823318
H         6.09142736891190   10.70336238938321    4.85020001761242
H         7.45935818680927    9.62680131320579    4.56816978376229
C         4.50260173566942   10.19170852938764    1.95723094720424
H         4.31102808162091   10.16631017071935    0.89068163460008
H         3.94535667847330   11.01886586911197    2.38669631006249
H         4.09431059332651    9.27829484401927    2.37832998926435

