51
CSD_code = HUTNOB | q = 0 | S = 0 | Stoichiometry = C20H20N6NiS4 | MND = 4
Ni       -1.42518878738525   -0.01089847817832   14.49672632828273
S         0.65129468216802   -0.42618899413422   13.75604200770967
S        -0.26176091707579    1.64458390992283   15.52234090683251
N         0.27154763551309    5.03474682115599   11.94062566768168
N         1.14291315252060    2.15965567982227   13.30945658804175
N        -1.80822296686283    1.20319209290374   12.54845571694695
C        -0.68982108672557    5.69853164675662   11.32142870198591
H        -0.37416951793748    6.27525437967626   10.46104437626028
C        -2.01623373084569    5.66502887709559   11.72156143269058
H        -2.76771618865204    6.21755539634552   11.17958509937530
C        -2.34348885815028    4.90254197142909   12.83221486087899
H        -3.36376621856055    4.84068349203897   13.17949517939459
C        -1.33954913505665    4.21749021646775   13.49644912880244
H        -1.55912464634972    3.61833519002691   14.36572150240960
C        -0.03954582413483    4.31147267339852   13.01095887388246
C         1.10953622114909    3.57100182163549   13.65455632801759
H         2.04716919607526    4.01921281801213   13.31425057575611
H         1.03866049379078    3.64442870001774   14.74209981941078
C         0.58426374840460    1.23470144499034   14.11051155170504
C         1.43117250999976    1.82104706551865   11.93092214921728
H         1.83030743138623    0.80351485997903   11.91576618871908
H         2.18473364508340    2.51450171558848   11.55454534758510
C         0.16601081841445    1.89663518856314   11.03457579160216
H         0.01260996127387    2.91761998512392   10.67745032718108
H         0.27364640929831    1.23208135488234   10.17522626737063
C        -0.98117522025055    1.50316425414249   11.80994885713144
S        -3.50597394236546    0.40059021875343   15.23325858240850
S        -2.58431143523614   -1.66601491341003   13.46664035296730
N        -3.05764695330937   -5.01822524645789   17.08374999208977
N        -3.98329157614991   -2.18800091646318   15.68163680199973
N        -1.04106282953110   -1.21704716159392   16.45112786246395
C        -2.08237857763098   -5.65517325043186   17.70963537768595
H        -2.38332119704799   -6.21639187679216   18.58540428687270
C        -0.75978961127916   -5.61327996731907   17.29806353158799
H         0.00325080555035   -6.14310487072219   17.84648994921638
C        -0.45141888723290   -4.87213006245630   16.16770892587678
H         0.56528367070083   -4.80369163981373   15.81112889634250
C        -1.46983684514559   -4.21630027968749   15.49626912040738
H        -1.26497638665677   -3.63382557036531   14.61224071235429
C        -2.76462319951285   -4.31571250180371   15.99481244526850
C        -3.92695272357424   -3.60122667774512   15.34538118951624
H        -4.85712211620288   -4.06213259530945   15.68871596932635
H        -3.85473527822430   -3.68053857193949   14.25846222454645
C        -3.43147469245071   -1.26033233722195   14.87891250631037
C        -4.28349965029534   -1.84556617868467   17.05668522620385
H        -4.70151441494819   -0.83553856639617   17.06272684917268
H        -5.02685899715105   -2.54989100101293   17.43309052896160
C        -3.02317661653601   -1.89295127174028   17.96231925193417
H        -2.86666287366956   -2.90457910098881   18.34359665053669
H        -3.13987110407323   -1.20953383091706   18.80565774932797
C        -1.87253737512119   -1.50929591262967   17.18772544174913

