52
CSD_code = HUTPER | q = 1 | S = 0 | Stoichiometry = C15H28CoN6S2(1+) | MND = 6
Co        2.95771224344500    8.47984601601333   11.88419055320380
N         3.44259800407912    8.35426868982960    9.97150325232828
H         4.46190268085500    8.24534194939427    9.97483798595839
N         3.19945141255164   10.47078228344842   11.77831552628363
N         2.49394791311044    8.77189024683063   13.81326923140492
N         2.68802626065135    6.54130580925269   12.14091186389695
H         3.61437530845090    6.20795754411100   12.42589858355729
N         4.74531001518905    8.18157113240273   12.32120076785790
N         1.17713852175447    8.56466684503576   11.38607069946880
S         7.35253426668620    8.07855094562002   11.42729155370000
S        -0.93686921232756    8.08148274085518    9.68424364405159
C         3.14340779665773    5.90326920082831    9.79177750376772
H         4.19581649413240    5.78892553652641   10.06333755770485
H         2.90200176412865    5.13020889684662    9.06253191439956
C         2.91982962545794    7.26398568705802    9.13633338313723
H         3.41905517651491    7.28426142190627    8.16101083974812
H         1.85136985864506    7.42217598827673    8.97492007389324
C         3.15529204056182    9.68561858040398    9.41846890777961
H         2.07573456242150    9.78305374488808    9.28724545727323
H         3.63265339197809    9.81901933401108    8.44093140887618
C         3.69313348612419   10.72155819458925   10.40011156323975
H         3.42747840112387   11.73189814437307   10.07362715183431
H         4.78363770874704   10.64482657711561   10.41109299367539
C         4.20199152735578   11.03601820982785   12.71014083091764
H         5.16041189792867   10.56249888432419   12.49524746481069
H         4.29996067337596   12.10907327601797   12.50593579555253
C         3.91174646737180   10.85624104160999   14.19827687160198
H         3.15925388061000   11.55943656932272   14.54016612445673
H         4.83122363146287   11.11372744146929   14.72857042366182
C         3.55848227285429    9.42849182901425   14.60453781399692
H         4.45929823366912    8.82024125978050   14.50756550509376
H         3.25610079907381    9.43612658168196   15.65857827853131
C         2.31530367596831    7.40670606208695   14.36918102219789
H         1.63752761499265    7.42618955916403   15.22825273096484
H         3.29029196826982    7.05246255332534   14.71261223652956
C         1.80442906150744    6.43541574850582   13.30976303298699
H         1.79902579456229    5.41579929617146   13.71186862652876
H         0.78895211741740    6.68804218351166   12.99793957948021
C         2.26121355518538    5.69421945509398   11.02060093769225
H         1.22560615745084    5.93551803866294   10.77182080122878
H         2.30435840607289    4.64195440754827   11.32437996466887
C         1.90134851723953   11.15860242169973   11.95592002154907
H         1.26748311531337   10.87264892183520   11.11810791081417
H         2.07259016385419   12.24040045218100   11.89003833410749
C         1.12966381384802   10.89694438929172   13.26414588377914
H         1.37850804890003   11.67064432643135   13.98745886477677
H         0.07491738609937   11.04612037726540   13.02615395377043
C         1.22240867966534    9.51584492841483   13.94290855815223
H         1.01502199606877    9.66181092684205   15.01032106215816
H         0.43782473307830    8.88060383085523   13.53406500228108
C         5.85913481103391    8.14236270509961   11.91246538393630
C         0.29458327883029    8.34138881335147   10.63035456673476

