44
CSD_code = HUTSIZ | q = 0 | S = 0 | Stoichiometry = C17H11F10IN3ORe | MND = 5
Re       -0.58672487687306    5.84394972045743    4.80625507893051
I        -2.49687755672651    4.08835762083430    5.49892369328118
O        -1.69753779711514    7.05020237340827    4.57846786036825
N         1.15255389885027    7.12467159263660    4.43217026718798
N         0.57293658362797    5.50079886220223    6.39644000774346
N         0.30566712355374    4.83224142437788    3.36182747659532
C         0.54054723451726    4.42739203639187    7.25963209227563
C         0.45988705423142    4.48427721139623    8.66215748812229
C         0.41448682919868    3.33662750379533    9.44315867780908
C         0.44321700505872    2.07514638788034    8.85942177014584
C         0.53889432741936    1.97629212522632    7.47329140555754
C         0.59842963921199    3.13002252559831    6.71433868418427
F         0.40711220647148    5.66494740805825    9.30071220333170
F         0.34105713861711    3.45389543924204   10.76995272747919
F         0.40062443256692    0.97994013477822    9.61623317223813
F         0.60894986873231    0.78364494068549    6.88610837421887
F         0.75408904911743    3.03140646511406    5.38203048901058
C         1.34281936773921    6.64988067146014    6.85442647781975
H         2.33495066356666    6.29904569071166    7.17208284871343
H         0.87490305666787    7.13220794821981    7.71955553115644
C         1.46629099837613    7.70285889350869    5.73916922076699
H         0.73516628471084    8.49564238988592    5.91768538055209
H         2.46799250928788    8.14882201738605    5.74303106553915
C         0.87022063718955    8.18377658094803    3.46346493531842
H         0.00940964424812    8.76227673541882    3.79893685976704
H         0.61922855889825    7.75002041976411    2.49750534928895
H         1.73253099404207    8.84808311074515    3.34707029319955
C         2.21029577002819    6.23470616627546    3.93448065874522
H         2.59312448813813    5.64483595542679    4.77092899888513
H         3.03874678592678    6.80996942246092    3.50433196611030
C         1.61254471678319    5.28281362949084    2.89581137525317
H         1.50741433058866    5.77987719053956    1.91952413525698
H         2.28677913807404    4.43111330797706    2.76272388625035
C        -0.29364614753231    3.85379063633666    2.58224150961445
C        -1.57586997886009    4.09252034362137    2.06156117916240
C        -2.27215493194615    3.14916720004695    1.32444507251963
C        -1.67885260753325    1.91637191308050    1.05874110316813
C        -0.39615918218079    1.65952266337197    1.53133913919884
C         0.28236799117402    2.61423757886648    2.27865687613612
F        -2.11288809031023    5.30566781115784    2.28092661969068
F        -3.48001485528557    3.42680784182434    0.84010982382254
F        -2.32406740636017    1.00020687380521    0.33767780784273
F         0.19226975536847    0.49346971711910    1.26195379403017
F         1.51928534873956    2.32619351846908    2.70939662370757

