52
CSD_code = HUTVUO | q = 0 | S = 0 | Stoichiometry = C23H19BrN5O3Re | MND = 6
Re        3.72702122102953   19.03705350509280    4.17032245113026
Br        2.02855271886292   20.85913516983061    3.75219546609185
O         5.57435301162200   20.56806387426625    2.22555115324556
O         5.91951317465047   17.07482603835097    5.10081247755788
O         2.60131792406584   17.18331337526391    1.96905482040360
N         2.37365711479434   18.36896822967595    5.76838593632989
N         2.68265732991742   18.26467751268116    7.06981513334583
N         2.40294734000400   21.93121188361525    7.13736108305524
N         2.97516465180347   22.91126360305941    6.42131092408504
N         4.27317234865396   20.37686221447301    6.16363654861278
H         3.30650955044963   20.65350744986554    6.44311739891939
C         1.08433593705126   18.09756852762956    5.65549625695007
H         0.59439721702193   18.12650776969249    4.70032872932533
C         0.53866557345299   17.81439900225621    6.90865690398303
H        -0.47802591365443   17.56923687551281    7.13299255122238
C         1.59013680380132   17.92646309693649    7.78553441654589
H         1.62980469185450   17.82215555609466    8.85063745566460
C         3.97994116229073   18.44763468852343    7.59510533715228
C         4.44151247111847   17.55223279318878    8.54828568203341
H         3.81626457113474   16.71810909895233    8.83105253689512
C         5.69304513048838   17.70379313001352    9.12565822380611
C         6.46861358164762   18.78643542980385    8.73079912160536
H         7.44066382229884   18.93515536500643    9.17627954962903
C         6.02382164506758   19.67990774911546    7.77591796916936
H         6.64492377478585   20.51821456239631    7.50310093678912
C         4.78173636150522   19.52114900890747    7.17368022483993
C         6.19933347664041   16.71243181456628   10.12544879688497
H         6.88576775578673   17.18404726476992   10.82422445417799
H         6.73599417384994   15.91376223371176    9.61288482227833
H         5.37941903408407   16.26391671218838   10.68113628858856
C         1.15635660076724   22.29897653826855    7.35103045174425
H         0.49407751907635   21.66272090361532    7.90428002086751
C         0.90251039492268   23.54407329850908    6.76583762916809
H        -0.01778438946939   24.08884389867556    6.76581920638586
C         2.08893851158752   23.90302503965190    6.17677340743931
H         2.33146883755411   24.75810216343841    5.58238658538381
C         4.30407263728226   22.82404585509826    5.97968732503943
C         4.98631516908278   23.98603596551991    5.62726580321329
H         4.49985232997014   24.94066820191968    5.75345884942645
C         6.27559873896978   23.94847967572174    5.12517349018693
C         6.89072497609249   22.71111912584894    4.95937079102351
H         7.88429495520927   22.65818987410779    4.54155385491587
C         6.23659871749890   21.55109504072479    5.31409412699562
H         6.70350975806658   20.58918109515851    5.15053181322436
C         4.95250887233270   21.58765787057509    5.85044197359936
C         6.99562835635474   25.20529566871392    4.74809579509534
H         6.39032088979719   26.08312778463046    4.95731489942419
H         7.23643523693780   25.19392742417692    3.68612226808671
H         7.93132457880700   25.28591590189639    5.29961946764123
C         4.91456110532728   19.94624096440443    2.92510129677607
C         5.09041850553641   17.78833193985908    4.74692565609419
C         3.06125004221669   17.85564223404430    2.77533163795114

