35
CSD_code = HUTVIC | q = 1 | S = 0 | Stoichiometry = C9H16ClN8Pd(1+) | MND = 4
Pd        2.50233862381236    7.27355452335455   12.92799455147079
Cl        2.59817817051912    9.17429568798482   14.10474350187246
N        -0.25568615744978    6.38973159972875   15.99332866079327
N        -0.37059258311880    5.01635059590465   17.83145585376836
H        -1.21618398392264    5.48485528541401   18.10868298170442
H         0.02164604114163    4.28130565130824   18.39446567676201
N         1.52740123151861    6.35662781778868   14.41963113366948
N        -0.27487981776886    7.77686631738998   14.17583738784892
H        -1.06896981592422    8.21316554340628   14.61699802362539
H         0.29843284884627    8.35496043547376   13.55850264181704
N         2.23018227547288    3.76884427249249   16.73833473564649
N         3.16050094932650    4.59123333444725   14.88211673796512
N         2.79635495369414    5.46710831818846   11.69960754950173
H         1.91309815528361    5.24817650390697   11.23641673090797
N         3.44922945942656    8.23249803087425   11.34991550672710
H         4.41569027627124    8.44794301551308   11.61276334359554
H         2.99588949567442    9.12660884796674   11.14509313110843
C         0.26077904641409    5.40393697784817   16.72858412434019
C         1.46493727725652    4.80760934962963   16.28380200907927
C         2.04262513481351    5.33529247133345   15.12206134649112
C         0.35465177196198    6.83389822664088   14.90531534132799
C         3.20709852017614    3.66378403782538   15.89985660356864
H         3.99188421898998    2.93833711105464   15.97267830417115
C         4.02122967192529    4.68531815019711   13.73221469511695
H         4.87000609275637    4.02029499390662   13.90178710919031
H         4.39465573278047    5.72969683552368   13.64461858377376
C         3.26784297094353    4.28713004764278   12.44000610193129
H         3.92084372427816    3.68057593793791   11.80207901226588
H         2.40914449266496    3.67198464565136   12.72199661079110
C         3.76410533642778    5.91240330998241   10.67914561899287
H         3.79008644938931    5.21994989212707    9.82832510536260
H         4.75966882561790    5.93291656057533   11.13772780724842
C         3.40972412481268    7.32131324798072   10.19768836414003
H         4.10713320635227    7.62660901969370    9.40833512671345
H         2.39625327963311    7.32652340330672    9.78138998671000

