69
CSD_code = HUTYOL | q = 0 | S = 0 | Stoichiometry = C23H34N3O5PSi2W | MND = 6
C        15.66943908120125    6.03545434468265   12.48202698580829
H        16.46733029972925    5.43335640024540   12.02689544717040
C        14.92545584822984    5.63075048858411   14.67466669847045
C        14.43948223531209    3.40207661920065   11.81904799492122
H        13.43570968736370    3.00397836308596   11.62146720508594
C        15.56934446375131    7.37411280202067   11.81934408658359
C        14.78330614307893    8.36318776416762   12.40221352164486
H        14.28315249325337    8.15455112533195   13.33723134143755
C        14.66795925464110    9.60896576012751   11.81333002823771
H        14.05262206478910   10.36634303906437   12.27607160091550
C        15.33056566607441    9.87823597207467   10.62783687899426
H        15.23139112904882   10.84573163415000   10.15956613954501
C        16.12342782428734    8.90327452145331   10.04675442747737
H        16.64829683416454    9.11128284445452    9.12616757404737
C        16.24927102690274    7.66092385038675   10.64217811663402
H        16.87643518108924    6.90651710143178   10.18905376205351
C        15.16039045796552    7.07707347204058   16.60607258934985
H        14.18151430555249    7.51637369280808   16.82911743897587
H        15.67811545471553    7.73581320292176   15.91603070435953
H        15.73039513608022    7.00653351725314   17.53409459401766
C        14.05239444877493    4.93888273398719   16.77841086641570
H        14.09555050711235    3.91854639103269   16.40773042705614
H        13.02753423567477    5.30735402803212   16.66831552703809
H        14.33395194727812    4.95912001454500   17.83026876620155
C        15.63913255110909    0.56513087384484   12.34110170736853
H        16.45541282548026    0.67555454224820   11.63675420582651
H        14.80497220032516    0.11617069696451   11.81365718757630
H        15.95718815128012   -0.13980270503497   13.10175142042097
C        16.68988194297872    2.87323719404346   14.06401086193572
H        16.42954257406704    3.59476780326808   14.83027382706938
H        17.39077744108983    3.34636041710280   13.38350565385259
H        17.21225383099961    2.05440933949033   14.54983748814657
C        13.74066204924446    1.80104603857385   14.39328810695951
H        13.06430352111611    1.06100548679650   13.97428450320422
H        13.15492753838308    2.68418024646150   14.62570013984046
H        14.12954748424853    1.39556379047350   15.32328754458758
C        17.17982130615762    3.41140209261023   10.20422995478713
H        17.52009862019346    2.71436881785334   10.96230489508967
H        17.61971123232628    4.37983072444721   10.42345768742332
H        17.59102119062270    3.08509627540794    9.25419355734757
C        14.68237793250921    1.94899269879729    9.09229219807621
H        13.59912543023276    1.90959348316883    9.03469239951348
H        15.02447225663333    1.01750937344197    9.52798731104684
H        15.06040373166812    1.99302385729602    8.07586352262533
C        14.77812520146309    5.02238907461729    9.08977893105710
H        14.55934345279012    5.86423719235193    9.74079333493081
H        13.89407843452474    4.83944631651675    8.48708959523423
H        15.56940124140358    5.32579049043831    8.40992594621202
C        17.23575666393964    6.49022378977474   14.34589827393707
H        17.45030351465002    7.55954544102784   14.25131136041239
H        17.95635262966393    5.94623091897204   13.72794593513662
H        17.36560457823958    6.18089073364345   15.38071540419057
C        10.01991670673188    6.59663195210586   11.25932543666286
C        11.89142026800487    7.15313749629469   13.31224695847103
C        11.17987857374325    4.55578331475612   12.92797686588942
C        11.72281602065194    4.65800295501201   10.21409481904909
C        12.53942467386845    7.38823619057477   10.46373308379950
N        15.90052421598952    6.18664516842005   13.90446963029112
N        13.95560820559476    4.98495523505750   14.10097552710474
N        15.00134623012957    5.74844148477483   16.03822860265544
O         8.95633993090229    6.94437337305093   11.01429390773301
O        11.85806793328777    7.71822898556691   14.30754873901251
O        10.82036350763578    3.73993829425106   13.64278842527569
O        11.56780775475669    3.83671582953384    9.43004048589140
O        12.85416051697678    8.18888440192271    9.70923456871892
P        14.02331685810574    5.08055418605924   12.43682796495231
Si       15.13818454454079    2.21402893820474   13.16205716857526
Si       15.26871841653502    3.46930563882096   10.08183801507403
W        11.85087038916254    5.97670186791882   11.70159412453863

