70
CSD_code = HUTZOM | q = 0 | S = 0 | Stoichiometry = C34H32AuBr2P | MND = 4
C         1.03288357697673    2.41086149992921   12.36308211139520
C        -0.14264236115515    2.99265693235833   12.83675284011716
H        -0.84417429397303    3.42669386628027   12.13719143570847
C        -0.40567829352449    3.01561324123327   14.19197370086369
H        -1.31658142361382    3.46781870936702   14.55488991191316
C         0.50218795809086    2.46687215538046   15.08417183281322
H         0.29854984918924    2.49185645609536   16.14405741516612
C         1.66954456794343    1.88707271199271   14.61616906727862
H         2.37505671785038    1.45481018845651   15.31054369573554
C         1.94232474426937    1.86104844254069   13.25975746162729
H         2.85323726771512    1.40402857803896   12.89923533910049
C         2.47631190288651    1.15940353294337   10.19914571038702
C         3.81817964056642    1.33738967945359   10.53415093174525
H         4.12120052270142    2.24414072806192   11.04437049989626
C         4.75279887767104    0.38291842510143   10.18492773873116
H         5.79203627220381    0.52611703990864   10.44109059784080
C         4.35799750615005   -0.74579689345101    9.48372624271921
H         5.09117450550180   -1.48189308126038    9.19084436121577
C         3.02795001571054   -0.91846872361886    9.13952223889921
H         2.72456267167370   -1.79247807990496    8.58241328701704
C         2.08395430214131    0.03075491015163    9.49039886000456
H         1.05091402975750   -0.09953030860538    9.20058978151312
C        -0.22910704089728    2.12025748736355    9.86798405117560
C        -0.74173206227553    2.89948722575239    8.83757390660984
H        -0.17500707483573    3.75162366073638    8.48283695190321
C        -1.97075750254829    2.58911480535648    8.28193102443000
H        -2.36876244134506    3.19619313333627    7.48238234809664
C        -2.68904433007588    1.50339234634952    8.75437600070610
H        -3.64796192551173    1.26198442526387    8.32092200472934
C        -2.18374240774705    0.72870958729201    9.78802645882500
H        -2.74887208311527   -0.11379190537772   10.15837494183258
C        -0.95854768357700    1.03405152950261   10.34926552523014
H        -0.56319765634691    0.44241482037921   11.16461154558884
C         1.01302805433523    5.53993413062152   11.17391726182832
C         1.52170588489036    5.69597463214872   12.46261044192884
H         2.54909125842121    5.42254891634412   12.66813662454743
C         0.75415144323332    6.18150503804400   13.50643927772569
H         1.17132156637031    6.28064838546667   14.49749715428531
C        -0.56198838649949    6.52200126577264   13.26133195899626
C        -1.10431241341097    6.40790220038160   11.99624599040034
H        -2.13236057843272    6.68454984304731   11.81356687864315
C        -0.31156800085861    5.91913778481822   10.97058893798314
H        -0.75330251031887    5.82694077030114    9.98655464308328
C         3.31471953513791    3.63126750227855    8.42842890920572
C         2.76238581481848    2.69100811145496    7.55968654665638
H         1.68574357105703    2.61735737237165    7.45831249026028
C         3.53996076898166    1.81570091395063    6.82194859719344
H         3.08133181631908    1.08514233252913    6.17201740758851
C         4.91297103482914    1.87381802505159    6.95446344778164
C         5.51025154933987    2.81642856347719    7.76786291230427
H         6.58593696031252    2.86434828644552    7.85192940467029
C         4.70580747424653    3.68233556862414    8.48913339177621
H         5.18604111493126    4.40844846999215    9.13188760339374
C         2.70809369509285    6.44533770772653    9.00720421258861
H         2.75315210788500    7.18064042549679    9.81018161472623
H         3.70835561477714    6.37582180988910    8.58224668277740
C         1.75351653992273    6.94868285887784    7.93303464728408
H         0.74656857721590    7.04297238127648    8.34622957163038
H         1.71404786533291    6.23358118663034    7.10737727535813
C         2.18956839272638    8.31125129510728    7.38870728320459
H         2.23863391316861    9.02551131230620    8.21354817129679
H         3.19245406601721    8.22264477289124    6.96548003989794
C         1.23076260470064    8.82811905100217    6.32383627367345
H         1.55972174478876    9.79480583573642    5.94945353354293
H         0.22982823064582    8.94198422912133    6.73504465874666
H         1.18053666539499    8.13463145122130    5.48692944246006
Au        2.14391905185723    4.62064518680986    9.76287293945303
P         1.37527503257656    2.54577334767829   10.58684787572820
Br        5.99822358497239    0.60115599285323    6.03005654987066
Br       -1.65932999297603    7.12861591615275   14.70649952672635

