41
CSD_code = HUVDEH | q = 0 | S = 0 | Stoichiometry = C19H19BrOTi | MND = 12
Br        4.17901516144297   11.82429994254960    0.06458994139544
Ti        4.11884794713627   10.12038195853640   -1.74154768738220
O         2.80585266202010   10.95313601258065   -2.47570651696972
C         5.09397907693493   10.88392186049687   -3.73916027150013
C         5.70979083263116   11.59188936347178   -2.68739648519619
C         6.45750750584005   10.67192108946845   -1.90609336796920
C         6.31707533871049    9.40508216431008   -2.48293293993937
C         5.44366925613935    9.52039961237755   -3.59112292029523
C         4.25196061048702   11.51413940539798   -4.82698411438821
C         3.36595197496064   10.46735140969848   -5.52382708904526
C         5.21103867571708   12.13053044487020   -5.85552259958148
C         3.33029841170543   12.54014193504068   -4.18107715432101
C         3.10518026223988   13.80671250729383   -4.69429660264866
C         2.23240370761648   14.68942905338324   -4.07771984914746
C         1.55948500462632   14.31215782648267   -2.92939792723813
C         1.75259765125170   13.05072657362360   -2.40241900027077
C         2.63427571804262   12.15755496067774   -3.01575083064036
C         2.37121261028615    8.94531190619478   -0.61386519758406
C         2.61338972059002    8.29577342163202   -1.84043129852501
C         3.91516214186502    7.75016804733233   -1.79130781187173
C         4.47704861979883    8.06635891691770   -0.53773410903173
C         3.52369031865438    8.79791610004659    0.18952299035720
H         5.68551581672368   12.66646973369284   -2.54571723231151
H         7.11250915955296   10.93642074671527   -1.08387462697180
H         6.86422130146976    8.51421447083627   -2.20317699171714
H         5.22946020481180    8.73398925307251   -4.30149763719720
H         3.61895871530837   14.12241260400070   -5.58840254993455
H         2.08222507250877   15.67225181338802   -4.49773202557204
H         0.88395482862160   14.99790296513296   -2.44162571475597
H         1.24613419635355   12.72996237069412   -1.50216757841089
H         1.44025455031981    9.40865611292847   -0.30786292251264
H         1.88815553762199    8.14405515413095   -2.63106143749470
H         4.34164668864722    7.07788513573866   -2.52338622133931
H         5.41811989402700    7.69991647530213   -0.14623399190720
H         3.61509515673573    9.10956562884421    1.22187752250166
H         2.75369297458631    9.93654196821820   -4.79106822347432
H         2.70335867170565   10.96314636697911   -6.23096966634631
H         3.97338018989472    9.74883247158692   -6.07033307836967
H         5.91859356834645   11.37248266611499   -6.18640067026032
H         4.66921364372004   12.49335031878270   -6.72534406756819
H         5.77167662034914   12.95043923146008   -5.41314204456303

