48
CSD_code = HUVDIL | q = 0 | S = 0 | Stoichiometry = C22H23BrOTi | MND = 12
Br       -0.21175082387743    3.82954036432099   -3.53039350394139
Ti       -0.00077824178545    4.80237024653146   -5.80226716100930
O         0.78809081829289    3.37804182926566   -6.35037362304520
C         2.06715751453559    5.67339854729784   -6.36978812733184
C         2.08260586105934    5.60074039284720   -4.95840697253463
C         1.14681586688408    6.53187159899297   -4.45112881916831
C         0.54547300253340    7.17691355838039   -5.53606091339077
C         1.09546861672325    6.64172774485178   -6.72664201504803
C         2.96273081490826    4.85448583228478   -7.28190631919038
C         4.25137383097385    5.67188696958738   -7.51576432049935
C         5.15993233660264    5.14481653426907   -8.62837611547085
C         4.38947985440085    4.90388763830734   -9.92061370578598
C         3.21790746818832    3.96823104427912   -9.64742984223226
C         2.27278135764163    4.61868881685832   -8.64378322561952
C         3.15906795357269    3.51495811632117   -6.58209095075444
C         4.38000860012288    2.93953925003449   -6.27312951296444
C         4.46303988507225    1.71171419676030   -5.63344871345486
C         3.31253216057128    1.03317634278077   -5.27605777808654
C         2.07815893641716    1.59382457567205   -5.53941168734441
C         1.98946476096551    2.83462273230182   -6.17268873081749
C        -1.40680181655479    5.13967386421737   -7.71630736847584
C        -1.65351586164248    3.81437292725737   -7.30627496869428
C        -2.18511332163482    3.85524757012497   -6.00877351778848
C        -2.31448685734916    5.21772043336847   -5.62725450669603
C        -1.86672129556324    6.00538125362134   -6.69545263347483
H         2.75253189176684    4.99572683681629   -4.35801673404187
H         0.98883794863245    6.75543602139883   -3.40370201812954
H        -0.11594928912428    8.03134330840066   -5.47010352728719
H         0.92149625245653    7.04143945870640   -7.71642917628999
H         5.29601995003257    3.45427956788742   -6.51059809931892
H         5.43264668954442    1.29265802148481   -5.41118791805398
H         3.37211320479773    0.07801400547386   -4.77751918320269
H         1.15903874460303    1.10936097628671   -5.23863193451811
H        -1.09597973999933    5.44145910403182   -8.70782457489200
H        -1.49354725111657    2.92180010654858   -7.89901998448123
H        -2.53300072193685    3.00458971546107   -5.43569424346335
H        -2.79383723243728    5.57195633292740   -4.72159289399200
H        -1.96916842232752    7.07860679165814   -6.78283680835510
H         3.94015048645084    6.68632032678208   -7.78200593739072
H         4.80810730346964    5.74142050784149   -6.57885687463664
H         5.95668573727326    5.87282553794378   -8.79873557542509
H         5.62997420107701    4.20701591675170   -8.33408687395199
H         4.01384779333662    5.85198372920235  -10.31351474470108
H         5.05392174579444    4.47089685105176  -10.67056323926444
H         2.67871383747920    3.75990988730772  -10.57409350124802
H         3.58590588081113    3.01975136157679   -9.24985076673628
H         1.38373375327338    3.99270926840674   -8.50362795998184
H         1.95493581508578    5.57996398551856   -9.05488239781803

