96
CSD_code = HUVFOU | q = 0 | S = 0 | Stoichiometry = C45H44Cl2O2P2Pd | MND = 4
Pd        7.15402509735115    0.52073916774170    4.23094851807882
P         9.03494753537087   -0.69553979481949    4.22911834398668
P         7.77592160724383    1.60450427368905    2.36943213267845
Cl        5.13065923106602    1.54549602383675    4.09914154835614
Cl        6.59092755293487   -0.36036924597178    6.24585487859495
O        10.22348573522074   -2.59443477951647   -1.31680153623879
O        13.57543767915730    3.06710227906720    2.26773139216999
C         9.53834540154994   -1.24014409831861    2.56266035229756
C         9.17718621247085   -2.51881835105200    2.13473268016389
H         8.70470883541046   -3.19655571978500    2.83059186096180
C         9.41099678689156   -2.93882820732219    0.84608128542568
H         9.10517054119995   -3.91833703346935    0.51503222393352
C        10.06147733297739   -2.10160396937457   -0.06212523756451
C        10.44803848072623   -0.83589480157950    0.36345517013780
H        10.94922182423960   -0.15383950399500   -0.30651948998234
C        10.14438184445762   -0.37895701201398    1.64102757065782
C        10.51456742008212    1.01568232320276    1.96551521071167
C         9.55415123377362    1.99467039252477    2.24491645306153
C         9.99195897464343    3.28465820512909    2.54794459499563
H         9.26654311785967    4.05192974252067    2.77509504062818
C        11.32877742960203    3.60519906522345    2.55399511353687
H        11.66256890168030    4.60024324707872    2.80100963565926
C        12.28794627635481    2.64468178335078    2.22634638502024
C        11.86158287074790    1.35823872537466    1.91775720701607
H        12.57074002944595    0.58181388497521    1.67301063679185
C        11.23319963044647   -2.05570638047950   -2.14898824760886
H        11.17272807795324   -0.96342699037785   -2.19005095835013
H        11.01285279203415   -2.44797684032981   -3.14491887154425
C        12.61645530902153   -2.52164551066131   -1.68766685415567
H        12.70594663698498   -2.32961137929960   -0.61471726001268
H        12.67071497793493   -3.60256215499913   -1.83084824508906
C        13.77100494001762   -1.84318487296883   -2.42257727634060
H        14.67779222021006   -2.42565813750294   -2.24539940609432
H        13.57986464757190   -1.85139635887461   -3.49736432339545
C        14.01745329930403   -0.41187318279952   -1.94544979768519
H        14.03468967020271   -0.41167782389331   -0.85422949795454
H        13.20506308173401    0.23991676984925   -2.27350723700372
C        15.34288654607877    0.13467619436194   -2.47000955181020
H        15.32749549948721    0.11330566214213   -3.56215942940423
H        16.15217053489918   -0.52207924896422   -2.14146221018828
C        15.64814113420486    1.56209852871612   -2.01173121314756
H        14.86832826854052    2.23426155551827   -2.37488891749125
H        16.58388496483978    1.86804105001564   -2.48269648918429
C        15.77634435985904    1.70639398388546   -0.48729880559300
H        15.98447518194499    0.73003310864245   -0.04455098830285
H        16.62293733435995    2.35274559244114   -0.24893955035587
C        14.52440627075110    2.30394302074956    0.15207284719879
H        13.63557527310190    1.76108807148991   -0.17180951837733
H        14.41148431993863    3.34126761264467   -0.17096575784557
C        14.59921084497422    2.28920577600731    1.68019282442115
H        14.58670908871739    1.26211061352545    2.06589537678932
H        15.52483238784916    2.76800403983455    2.01141896970610
C         9.00582589625512   -2.23510834783779    5.18827936148426
C        10.03794959377900   -2.65811414095086    6.01392571435948
H        10.93528252031279   -2.06426922507854    6.11322301487315
C         9.90205143447585   -3.83612729200020    6.72970088106779
H        10.70190268891509   -4.16218434628355    7.37864897202798
C         8.74394409685539   -4.58706768415402    6.62687894629753
H         8.64168182502896   -5.49978937831387    7.19515919758636
C         7.70618526980262   -4.15987471712600    5.81199859650425
H         6.79475076622468   -4.73542399642536    5.74896047964295
C         7.83233839827034   -2.98436379635134    5.09903262587650
H         7.01027572652891   -2.61089139345664    4.49271048641388
C        10.42304440070551    0.27967590036968    4.86621620123227
C        11.75735641103968   -0.06982154475927    4.68637415877171
H        12.00485815400435   -0.97177478387326    4.14187048334905
C        12.75259187776486    0.74759511847495    5.18960123741124
H        13.79084561377330    0.48019598044551    5.05371220723623
C        12.42260153956870    1.91202098880736    5.86487704653376
H        13.20530481825943    2.54952176346931    6.24798892286652
C        11.09426215286838    2.26189527744607    6.04732254384484
H        10.84244986631984    3.16936673033593    6.57532684513448
C        10.09399737913660    1.44677971153060    5.55039654563027
H         9.03605642994615    1.70226095819837    5.68834934050626
C         7.40590023533939    0.61032240385368    0.90075446085491
C         6.56674768195927   -0.48481391402502    1.08686120927792
H         6.15629524059135   -0.67846279116544    2.08560517852724
C         6.25925588376659   -1.30788300266094    0.01907164609134
H         5.61091076653903   -2.15955509501800    0.16036660783390
C         6.78683258729894   -1.03876798941722   -1.23362447216161
H         6.55190958225782   -1.68362574084387   -2.06710236777745
C         7.61963339180592    0.05297722035821   -1.42184491095755
H         8.02689708890898    0.25692392424096   -2.40182298012859
C         7.93439115270520    0.87808434036418   -0.35801781255697
H         8.59869615540446    1.72228568576524   -0.49018174726252
C         6.98092011306876    3.21609089683492    2.12337443092773
C         6.46603765559297    3.66013710658278    0.91428087302804
H         6.52793306330614    3.03693479723797    0.03362580889619
C         5.84892137740088    4.89883007948270    0.84859902635773
H         5.43938710160086    5.24250002810794   -0.09019667249821
C         5.74366452317478    5.68858313507418    1.98011385346707
H         5.25300425974785    6.64901378284494    1.92284798815826
C         6.24824347939592    5.24155687852010    3.19260863055459
H         6.14680262988787    5.84987920454308    4.07899472207284
C         6.85994363710173    4.00660007966511    3.26677768516483
H         7.22230028799443    3.61945789183399    4.21765345104746

