105
CSD_code = HUVGAH | q = 0 | S = 0 | Stoichiometry = C48H50Cl2O2P2Pd | MND = 4
Pd       -2.29420907412420   -0.44875175428673    7.11080128287336
P        -1.28708891684590   -1.46744779878299    5.38265830116140
P        -0.88906809299958    1.30209479697212    7.05542610050239
C         0.53005000811853   -1.33174310216541    5.35113467987941
C         1.31953457460103   -2.40797015480932    5.74566350812182
H         0.85012108450505   -3.35727698986787    5.95986666929476
C         2.69288162261213   -2.30576077312631    5.86806368743471
H         3.25833104126396   -3.16732878880475    6.18600502254062
C         3.31978450478468   -1.09657518777221    5.58590587669865
C         2.53905051950710   -0.02261799404115    5.16052094952567
H         3.03526262815273    0.90715363577076    4.92769059925173
C         1.16222020708582   -0.11259842371753    5.06780437907691
C         0.45558032604547    1.09414649401017    4.58939715340785
C        -0.38366582616459    1.87344822622368    5.39898810184852
C        -0.92021018447344    3.04121376726565    4.86372114509504
H        -1.56876989114894    3.65328331917885    5.47372916321105
C        -0.63709167559408    3.45418731588366    3.57532360157495
H        -1.07836138079463    4.36485081349073    3.20097655924896
C         0.20206507725352    2.68524278693042    2.77546789946255
C         0.74754682110749    1.51720523778762    3.30531774813123
H         1.40893636359627    0.93453150178499    2.68245710373954
C         0.47109210833270    4.31040762295796    1.04167544350686
H         0.73089952488846    5.00762503170121    1.84822395138707
H        -0.55536238359555    4.52285781496703    0.71109223562137
C         1.43980795243391    4.47714807910012   -0.12847111988230
H         1.17991688952810    5.39960868777918   -0.65113633249699
H         1.28946657049949    3.64153312633126   -0.81358424830462
C         2.91152831195731    4.53694483252462    0.28922167430903
H         3.50595550499473    4.77524769028661   -0.59627824820384
H         3.05129620635299    5.34963090786916    1.00646895344527
C         3.42527692307318    3.23055876276206    0.89174123228984
H         3.18266741469062    2.40820784095525    0.21544334042907
H         2.91788706137861    3.03822154212728    1.83667765944335
C         4.93145990520366    3.24781378641037    1.14265226262826
H         5.46018052909069    3.40602104651078    0.19963202385945
H         5.18085140546253    4.08127689582789    1.80401072049224
C         5.40024513709141    1.93973766145096    1.77833424545966
H         5.16322237685379    1.11051515458568    1.10731233290160
H         4.84782209157061    1.78274677420505    2.70645891215700
C         6.90011919157980    1.93892080303990    2.06624821596220
H         7.43459959429880    2.16769546334566    1.14069225157010
H         7.13093636492861    2.73071623202278    2.78286510325013
C         7.41174176928560    0.60301373415508    2.60898630493398
H         8.50346148952010    0.63963449692515    2.65400574516902
H         7.13860319008131   -0.19516776608625    1.91443771776827
C         6.87079883577226    0.27269943926307    3.99851147350043
H         7.10155779260433    1.09587192426856    4.67860823601396
H         5.78855165348751    0.16895579669535    3.95727836095749
C         7.47466115441222   -1.01544141454794    4.55503426633461
H         8.56095758510242   -0.90487959435440    4.60186437202811
H         7.25881686899917   -1.84304244318795    3.87501806410657
C         6.96483412207050   -1.36619449037705    5.95500640122743
H         7.01187803773408   -0.48132686944856    6.59148984793057
H         7.60876956978090   -2.13361760512551    6.38904335881801
C         5.53540935133509   -1.90368037052712    5.98126065628495
H         5.42188888662061   -2.71177217205732    5.24570558119706
H         5.31128660180700   -2.30469130083144    6.97989049605189
C        -1.84561970656518   -0.67522513550435    3.85015077010632
C        -1.18845239270919   -0.81741826723629    2.63233170132622
H        -0.30558804257450   -1.43963592922082    2.57082534153587
C        -1.65620451922152   -0.14547516244633    1.51823046437923
H        -1.14421355841422   -0.24824159921795    0.57285962548319
C        -2.77430598039891    0.66750162799178    1.61525127935477
H        -3.13182504432361    1.19418870925597    0.74272448688903
C        -3.43479827743059    0.80776184934170    2.82548326350884
H        -4.30758823461488    1.44000057838855    2.89499956636790
C        -2.97255557358914    0.13788883107902    3.94344963179430
H        -3.48641613826183    0.23476975824619    4.90948789611718
C        -1.57737202887233   -3.24637928237547    5.18113598498790
C        -1.90837038735649   -3.84784577201932    3.97538245751099
H        -2.00622464125968   -3.25285099783944    3.07859553872470
C        -2.13409000331291   -5.21393225720964    3.93243135346933
H        -2.39887366289851   -5.68257037831640    2.99569699693488
C        -2.03345310538117   -5.97583881088650    5.08348095681007
H        -2.21921026071262   -7.03909517257601    5.04376676202326
C        -1.71383171980755   -5.37455023754499    6.29187689290103
H        -1.65586353080008   -5.96680814633940    7.19303578524073
C        -1.49195416361927   -4.01302470668307    6.34324938295071
H        -1.28331102007814   -3.51793980462292    7.28793347497896
C         0.65749712743900    0.81838977161012    7.87111855549129
C         1.84449978419954    1.53213558989030    7.74079080144765
H         1.86376888150227    2.43156026417635    7.13990921238452
C         2.99197877291801    1.07483864166770    8.36174476501265
H         3.91642599337817    1.62340328235743    8.25677143477369
C         2.95989188931756   -0.09170828820554    9.10923774504964
H         3.86080135381517   -0.44717868952672    9.58773130586732
C         1.77836562505214   -0.80288882083036    9.24580182508166
H         1.75754022677378   -1.70943499935871    9.83241173180766
C         0.62673354946217   -0.34982445652184    8.62845286338185
H        -0.31909104441825   -0.89893886175913    8.73058035742147
C        -1.44546672694757    2.82363195302594    7.87092930826410
C        -0.67359701188591    3.55724295240219    8.76024296025008
H         0.32979309420377    3.23763031302766    9.00295302537139
C        -1.20567821845058    4.69053408441472    9.35335977605741
H        -0.60868092004176    5.25795921478492   10.05253413028883
C        -2.49911725611016    5.08911863721012    9.06464753907056
H        -2.91025128605251    5.96859694686869    9.53798610542739
C        -3.27630459772026    4.35056749315930    8.18440788736872
H        -4.29229380003539    4.65126443868047    7.97568217904439
C        -2.75448457092285    3.21763588263582    7.59331859525594
H        -3.36197410741936    2.60234487085529    6.93465807085854
Cl       -3.84595494404661   -2.10628127152224    7.11115197198949
Cl       -3.24332972294934    0.45278589508358    8.96730860713973
O         4.64434835436013   -0.84733270293370    5.68124615821805
O         0.55691622106332    2.97428411509833    1.50300245005501

