117
CSD_code = HUVKOZ | q = 0 | S = 0 | Stoichiometry = C58H54N4Zn | MND = 4
C        -5.41484827287945   12.61642632619840   20.03976048976148
H        -6.11119251110529   11.79065793888992   20.02582145988168
C        -0.82525617199934   18.01148668472043   20.10312192273253
H        -0.12268944763861   18.83197790063002   20.11067353243259
C        -0.52365247908292   16.29256127473976    8.74551251997216
H         0.23883727189686   15.52766819666698    8.76582688485257
C        -1.67468124209975   17.83223507053907   19.03888589654037
H        -1.64502541910590   18.51183975344073   18.20068588234705
C        -3.59741194424557   14.76320082886707   20.07331033148195
C        -3.67595608502010   13.84601296282515   21.13041378826604
H        -3.02714843025219   13.95225523991409   21.98470231243719
C        -5.36394500134411   13.49651464513445   18.98674155918729
H        -6.02418904549176   13.34482720487746   18.15034945857768
C        -4.56229610292055   12.79506801692572   21.12275495937528
H        -4.59351211937452   12.10852577541776   21.95608266331242
C        -5.52000597803972   21.31203443172991    8.61757742829613
H        -6.28140348568515   22.07816355574897    8.60055487683353
C        -7.75525053919629   14.72451685783364   14.34523628854240
C        -5.10647326414760   15.66027370744840   16.65628639304365
C       -10.24815442446742   19.51096588416716   14.00733024808475
H       -11.16481644087802   19.47355416954745   13.43867265689264
C       -10.25105033829177   20.10530024079866   15.25377694692768
H       -11.16063704866040   20.53377499307338   15.64742280843597
C        -9.08672727946418   20.14114672418152   15.99677039162654
H        -9.09556246768801   20.59896029906364   16.97405280607642
C        -6.53960480185381   14.90488555071216   10.97448063042659
H        -6.90268717931100   15.91331959149493   11.16103689008273
H        -7.24675651408034   14.39988204371932   10.32090159787934
H        -5.58421557581659   14.97701607805987   10.45892136586835
C        -9.14126260189204   15.39914860092436   16.38990050699657
H        -8.20663301378510   15.89817226617321   16.66326553501548
C        -6.37230370665453   14.14971252958819   12.29419464109509
H        -5.61035243082073   14.66929883316691   12.88511514107550
C        -5.87329119684183   12.72420646596182   12.04865463844003
H        -5.74785168359705   12.19752621257033   12.99250327902817
H        -4.91431844923171   12.74842086823580   11.53572415497492
H        -6.57489464090457   12.16452551503806   11.43492951895215
C        -9.48225655833087   14.39461887341934   17.49374676081282
H        -9.53370928789278   14.89999923514167   18.45565902904869
H        -8.72753218300266   13.61344343331581   17.55813194222338
H       -10.44207055670095   13.92097167351399   17.30266032610329
C        -8.78763341218379   13.52418363140357   12.53733535645427
H        -8.72902885349727   13.06608694922316   11.56190812487133
C        -6.79976630739901   18.93012714940721   17.63891797210287
H        -7.08428124345001   17.89832515012851   17.44398873531553
H        -7.56222218053992   19.38461267228562   18.26687003597483
H        -5.85949574252033   18.92622221164481   18.18633514417171
Zn       -5.56805729777318   16.95584699086276   14.32376717710764
N        -4.56545896881924   17.22210534623811   12.68933687212897
C        -3.37455286207675   17.50891560657925   10.81012197741705
C        -8.96735398362329   14.70657187589129   15.05590845323622
C        -4.38072747611201   18.49809314854738   10.81206024661291
C        -4.60553727327314   21.21047912931547    7.57593558710655
H        -4.65286234222234   21.89802959744896    6.74419635215526
N        -6.71460427641111   18.47433609386022   13.72940051781001
C        -9.09159323392558   18.95927855624741   13.47158062102160
C        -4.47344458577245   19.42602421960153    9.72484315706129
C        -4.47384480067795   14.57866785213820   18.97099743536717
C        -7.90713106870937   19.02600301563973   14.22465278572129
C        -1.55927885662040   18.15927669783913    7.64614812000494
H        -1.57386392299826   18.82737073224306    6.79991986682657
C        -5.44738945059427   20.43195823492153    9.66935042592926
H        -6.15802656302452   20.52260589899781   10.47260233132818
C        -9.16738498185942   18.26386276138003   12.12992501149024
H        -8.18889045998263   17.83904068890460   11.88635332555963
C        -3.47859499828311   16.57132647648573   17.92247395723042
C        -2.50312792976752   18.29412487404411    8.67419154084125
C        -1.43281473272851   16.39642708779409    9.76967556438457
H        -1.39042231343945   15.71281086026544   10.60406351094430
C        -2.64809325033159   15.86509367559738   20.10183167969816
C       -10.06082545899437   14.07029194905864   14.48279085177608
H       -10.99699842205467   14.04099007890326   15.01922262041450
C        -3.53955543546167   16.76305718366761   11.98548938366357
H        -2.96129006724502   15.92834249092058   12.33822314213427
C        -2.42321659027112   17.38522046226784    9.75263731881563
C        -7.66729405477144   14.14088818682017   13.07299473043372
C        -5.11586947190499   18.28989503533514   12.01062534547207
C        -6.25462772101331   21.15152462445104   16.58022980329838
H        -6.13234343085689   21.68407680382442   15.63926468262572
H        -5.31583842780475   21.19653183766966   17.12792335603258
H        -7.01638866726291   21.66091444606116   17.16538677637024
C        -9.54609865631861   19.24732419088964   11.01940216479501
H        -9.52644273563511   18.74641282857027   10.05398658613732
H        -8.85106687549892   20.08384252635487   10.98480808238889
H       -10.54497734866698   19.64568528280592   11.17949341130787
C        -0.59082604257665   17.18280755948860    7.67826044437923
H         0.12178978541555   17.10754058799866    6.86976658615698
C       -10.16169049840867   17.10127593583329   12.18200004969369
H       -10.15545766151405   16.56560197750117   11.23521394796282
H       -11.17277513530524   17.45406960934096   12.36857163514799
H        -9.88715848214021   16.40407553911631   12.96957282043819
C        -2.58726225790497   16.77122334636893   19.01980795509965
N        -4.60923795178997   16.76428217324073   15.99464414859103
C        -1.76729520930333   16.07846445656408   21.17168990616487
H        -1.77149028029754   15.41691988861955   22.02315732582695
C        -6.15866872002506   14.97458794726317   16.03672509098332
H        -6.59390557453534   14.09660466284842   16.50482841321889
C        -9.97653324321190   13.47522034582458   13.23955350166436
H       -10.83785460499446   12.98018142026539   12.81652038412842
C        -3.63858529793159   20.23363172932848    7.60650316056819
H        -2.94501264759600   20.18479098040167    6.78271690611577
C        -0.87551702394085   17.12590550656669   21.17519402239921
H        -0.21009328465438   17.26085491273984   22.01551542326923
N        -6.62351557673187   15.36053734588708   14.88055707315646
C        -6.64185685759919   19.69369789955893   16.32291440616480
H        -5.82497973507713   19.22928080919794   15.76017534896626
C        -3.53588582807911   19.31856165344339    8.66336116626992
C        -4.40683496796389   15.50939827355531   17.88433720593059
C        -7.90642665460895   19.60976023451390   15.49989370366708
C        -3.64986443936631   17.29985286434342   16.73713449787140
H        -3.12132088805015   18.17460029421562   16.40392104509019
C        -6.23617691726741   18.89697553800875   12.59184004099253
H        -6.71388617054255   19.74501819467918   12.11007851950458
C       -10.21853465948119   16.48254930453729   16.29672388470249
H       -10.28707392987354   17.01914419868966   17.24050208511753
H       -11.19253804896166   16.05349524002814   16.07590525324465
H        -9.96962581543123   17.19688800303791   15.51609344198363

