38
CSD_code = HUVQEU | q = 0 | S = 0 | Stoichiometry = C8H17CdN3O7S2 | MND = 8
Cd        1.21628119771952    6.22352693351576    3.52212766987623
N         0.93616207186518    4.47259363371408    1.79430851494070
H         0.08083434029912    4.11715133615608    2.22505381526818
S         0.44608368044676    7.64950502524684    1.36583218037669
S         3.31211348825268    4.45140987992556    3.95319890289370
O         3.35575454078857    6.44420332133164    1.51049116294834
C         0.59904633812866    4.98451831326176    0.47389675640039
H         0.09181349148911    4.21954381741550   -0.13805154615407
H         1.53703984674418    5.24599869502194   -0.02626565684954
C        -0.30659021199964    6.20391437339233    0.54699846065031
H        -1.18761857297836    5.99761460761191    1.15597849411536
H        -0.61570696082787    6.51099281319260   -0.45251261413332
C         1.91489886174551    7.96353894820478    0.30689835525411
H         1.85150877444455    7.30525293545433   -0.55627478939302
H         1.84117021118138    8.99909935637388   -0.02302844386332
C         3.22552030072482    7.77636922116909    1.05278722528160
H         4.06049427599372    8.01307790325183    0.37277191364493
H         3.26927281661826    8.46566085965210    1.90672757342652
C         4.55387225585789    6.27242882009799    2.24726080516869
H         4.57166427538227    6.97647065041704    3.08821669121430
H         5.41594243098494    6.47905741227522    1.59219433332064
C         4.66083589507183    4.85295229818530    2.77591450594940
H         5.59476323515774    4.75229811571969    3.32723155447268
H         4.63717454252286    4.12380066725617    1.96991899670177
C         2.48209402184721    3.06074555466729    3.10473468929684
H         3.19521018826199    2.23965061418964    3.02789771348003
H         1.68516815389833    2.77655407928379    3.79334952684318
C         1.92633887310580    3.40871543171645    1.73156263458316
H         1.51138822840181    2.49032045254955    1.28340368932391
H         2.73939620263862    3.75569364090324    1.08656826536715
N        -0.62631714781576    5.20681253150306    4.88151165373309
O         0.56460202617227    5.19881615442647    5.24736571382093
O        -0.85926095610052    5.51798526536151    3.69806742156257
O        -1.50548119062827    4.86730418364993    5.61710197257213
N         1.65719080507722    8.39296452572254    4.69743063080487
O         2.57060645640441    7.72759294956207    4.15372719529153
O         0.50041585706885    7.97753322659368    4.57212835101586
O         1.91411735605632    9.40433145202641    5.28327568079872

