83
CSD_code = HUVREW | q = 0 | S = 0 | Stoichiometry = C29H48ClIrN2O2 | MND = 4
Ir        0.41008516863141   -0.07079110690301    5.04287978353469
Cl        0.01462943501793   -1.55128332056826    6.75559914933362
C         2.40869789035654   -0.50300174178431    5.40987682334403
N         3.09641928584197   -0.13659241087230    6.50812271955431
C         4.30238947190111   -0.77748971832357    6.54864721344679
H         5.00771426514573   -0.63963246527406    7.34126198829584
C         4.36909604304319   -1.56144794660973    5.44726279973560
H         5.14550467663623   -2.21583799896948    5.10993043711789
N         3.19974857836426   -1.38172901190686    4.76166706628689
C         2.63039738072329    0.81229751706102    7.49936591989389
H         1.60670963293486    1.06253527280506    7.21078555848136
C         2.58166934953803    0.15880789116967    8.88778571599821
H         2.18966152718460   -0.85425183163595    8.77344643912600
H         3.59197464471315    0.09059979208458    9.29943098581525
C         1.68411108239242    0.92285558945873    9.86587032120466
H         1.95611249291482    1.97786197399545    9.84653641775935
H         1.88535777012979    0.56322740925629   10.87730711335913
C         0.19140358479844    0.75923742915834    9.56172670751172
H         0.03665534645392    0.63463875195159    8.49209959912354
H        -0.16389450754297   -0.16198904371724   10.02783944462245
C        -0.67541936848275    1.91859831825471   10.05990870937677
H        -0.53227796636628    2.02878257100212   11.13841951374199
H        -1.72280837386459    1.65813494716087    9.89175541237804
C        -0.39325444541346    3.26971470247908    9.39587965326579
H        -0.99032237036008    4.03291165559846    9.90186290408356
H         0.65183092270604    3.53478075428191    9.55696497575856
C        -0.71104124698673    3.31059890794211    7.90038375579477
H        -1.79516610400076    3.33402047263565    7.77079399429281
H        -0.35539298138294    2.40256615206733    7.41441693470721
C        -0.10154937710603    4.52802852579800    7.19823556738215
H        -0.54109640838438    4.62178094450556    6.20286554123139
H        -0.36619808074361    5.42542761837063    7.76280010526498
C         1.42264902152647    4.46122768652737    7.05576148753569
H         1.85539182472568    4.19409393025838    8.01857059055262
H         1.80020141762127    5.45483906352861    6.80410788461108
C         1.87309594538173    3.46731387253260    5.98316108468510
H         1.83767180663504    3.95676087080872    5.00793822665826
H         1.16829588991097    2.63417356096732    5.92989441144802
C         3.28806618503491    2.91763650528424    6.18595035628026
H         3.54215607541353    2.30695006502287    5.31536003856278
H         3.99156455333900    3.75328009946887    6.21795138821486
C         3.48879321165402    2.07985431659764    7.45407716834083
H         3.26083725564661    2.68447526792980    8.33038222613926
H         4.54379223788696    1.80107509885760    7.52335647141591
C         2.87516014585028   -2.01384856008471    3.49969656725951
H         1.89557694582238   -1.62055126075881    3.21905109954957
C         2.76252697737092   -3.53267291501322    3.66138196299539
H         3.64397647970065   -3.90669990114289    4.18875554487261
H         2.76850915715121   -3.98651053134085    2.67050748441677
C         1.51176686517365   -3.97899983109700    4.42767774661148
H         1.54917779145706   -3.56546557540577    5.43778496743701
H         1.54292251658212   -5.06775602423197    4.51744130017702
C         0.17332910421583   -3.56731908543130    3.80812790607382
H        -0.61932671705871   -3.90457752279458    4.47893504811639
H         0.10428701023793   -2.47468741010161    3.78939792112347
C        -0.08261286516084   -4.12974962008951    2.41018316783841
H         0.84571379447014   -4.15155930969588    1.84092031430166
H        -0.42460547421385   -5.16340955336949    2.50038180269760
C        -1.12494737334577   -3.32310557730222    1.62799647130879
H        -1.97258545576038   -3.11695946653744    2.28474192210922
H        -1.49249518049119   -3.92587582677068    0.79388518442753
C        -0.58614312017865   -1.99919404990456    1.07619133056152
H        -1.42518476347243   -1.38386549800602    0.74507089612135
H        -0.09565916008570   -1.45234742242075    1.88174623326108
C         0.37481086131214   -2.20083010077001   -0.09807735080419
H        -0.20960653399296   -2.42477761563913   -0.99388619577224
H         1.00273466590842   -3.07246411051093    0.08667143486613
C         1.26865670070182   -0.99407851784042   -0.39937756496845
H         1.82979508427800   -1.20178130688649   -1.31416780041626
H         0.63373381212628   -0.12636464444324   -0.59073128714923
C         2.25410009544340   -0.62507184963883    0.71340580215582
H         1.69040368324274   -0.39268760995509    1.61579842315260
H         2.77074164689745    0.29302860801342    0.42550621700672
C         3.29468172356832   -1.70893217845745    1.00928003799674
H         2.84699256517312   -2.69521586887083    0.89696715135245
H         4.10345526308867   -1.63959815981573    0.27916578073569
C         3.88472093214901   -1.59704521874930    2.41804868410087
H         4.18264267695567   -0.56036039024577    2.59493244374137
H         4.77909837717533   -2.22064963425212    2.48871187694196
C        -1.45988431091709    0.07665636989458    4.97819099895883
O        -2.60108699909225    0.04863643572108    5.06579715080296
C         0.78193206261841    1.15737265455720    3.70770702730878
O         1.02352827148280    1.94757714106236    2.89724169353309

