59
CSD_code = HUVRAS | q = 0 | S = 0 | Stoichiometry = C21H32ClIrN2O2 | MND = 4
Ir        1.34731381622331    1.28949735371983    3.05004016864603
Cl        2.83742851439271    2.59662380715618    4.17695683162527
C         2.14565687045432    2.21755125436704    1.38377420803497
N         1.79549919284511    3.42037143579648    0.89595546038776
C         2.69249197544851    3.82591642894332   -0.05275849523416
H         2.61147135470854    4.76222392974977   -0.56495522956213
C         3.62351687503161    2.84689701045069   -0.15543249573636
H         4.49587311120554    2.78178028703992   -0.77214242133024
N         3.26935916067278    1.86970287233487    0.73290155440237
C         0.63765433273852    4.15978376246619    1.35928322820985
H         0.24041476741111    3.54860756173274    2.17814749424724
C         1.04858315404541    5.52892928999471    1.91941448150857
H         2.13706018085060    5.54580949048254    2.01698012363851
H         0.77188979822527    6.32771013688628    1.22909695199523
C         0.47205794924550    5.80267732883740    3.30973367780157
H         0.94320887781615    6.71370738505580    3.68803852950591
H         0.77159845842256    4.98714945998323    3.97159689024220
C        -1.04454774633240    5.98988781666349    3.40541299013722
H        -1.24854815580401    6.32748226999942    4.42425805657768
H        -1.36446736800110    6.79415724737669    2.74074551852565
C        -1.87933711281243    4.72840492144328    3.14565835383019
H        -2.72417291676136    4.72517582532101    3.83880810368330
H        -1.28769089735129    3.84631407596472    3.39374814728952
C        -2.47763678530940    4.60059128900777    1.73575073432302
H        -3.39663909399698    5.19245598946349    1.70896463410019
H        -2.76081773915588    3.55793860501161    1.57600216205567
C        -1.62745538039009    5.07008247568641    0.55516315070046
H        -2.26733752414247    5.05987847373884   -0.33139175185905
H        -1.32539701023103    6.10514747401227    0.71165609339942
C        -0.40182963338485    4.21880077215954    0.23662087404776
H        -0.71893005522538    3.19716512892959    0.01154707720953
H         0.07187928569913    4.62506243266899   -0.66227077631172
C         3.98958919339960    0.63789325064783    0.99043258150637
H         3.43758707600182    0.17321271671051    1.81581935910438
C         5.42258271183475    0.92994292118502    1.45833975581532
H         5.49835760128637    1.99763793038407    1.67950741768544
H         6.14039825561363    0.71085356305061    0.66601098182940
C         5.79731496664887    0.18209035063170    2.73919429625367
H         6.75926469740842    0.57419973225159    3.07972359222466
H         5.06032878848742    0.42716066453094    3.50715385533673
C         5.92538845393613   -1.34040100084136    2.64004358792534
H         6.34356874601314   -1.67599762259646    3.59193732991728
H         6.65198825444156   -1.60474784417443    1.86984948211918
C         4.61033835645399   -2.09581485566814    2.40418646183948
H         4.62956653519573   -3.01546051408206    2.99420582418887
H         3.77976229032594   -1.50770106260451    2.79621204379995
C         4.33645045764748   -2.51982459151548    0.95307643251071
H         4.89461501399759   -3.44084444925861    0.76372639377331
H         3.27527944275253   -2.76077739477589    0.85992843799153
C         4.72336709834450   -1.54394319562977   -0.15796477318816
H         4.60400861720565   -2.06970198717185   -1.10924012128405
H         5.77959182093925   -1.29148626050447   -0.06997964024173
C         3.89399381110886   -0.26582724673930   -0.24218266788713
H         2.84310103955919   -0.52535618025545   -0.39411445223156
H         4.22637787009124    0.29810998271917   -1.11900184200877
C         0.84123146564330    0.63891069685411    4.73512662132247
O         0.63683802181496    0.33570294876198    5.81987529940253
C         0.17635507114318    0.27824912902409    2.03391635714709
O        -0.53939591383447   -0.33296327335767    1.36121305903927

