98
CSD_code = HUVRUM | q = 0 | S = 0 | Stoichiometry = C35H56N3O2SiY | MND = 6
Y         1.06752097844180    4.80877451650471    3.61628760232623
Si        2.54703149524257    7.07527123662448    1.11692947725515
N        -0.17285066471850    3.17703539228014    2.62017900842338
N         0.02240918942076    4.04268231869086    5.52085392164377
N         1.94207581873999    6.10694676477097    5.29713543734617
O        -1.09814983332101    6.45706471088686    4.03873254421515
O         2.91820969510821    3.12642028618384    4.71402164569028
C        -1.84633606179655    1.37759634929271    2.34538685573027
H        -1.86301028979737    0.40004882049026    2.82374349332414
H        -1.41165323038293    1.27985936456784    1.35402774565582
H        -2.87837517994205    1.71217449359527    2.23572892616366
C        -1.07356679226407    2.36904885857508    3.19397076743636
C        -1.39798491878161    2.36058062507811    4.54074454889099
H        -2.16139513550363    1.63951414521997    4.80318528378597
C        -0.89710956155988    3.10170553417074    5.63676715449581
C        -1.47823598059726    2.73788665370889    6.99025470523622
H        -0.70418039715581    2.33341759207855    7.64446436154095
H        -2.25834039234262    1.98944172950502    6.88532491840731
H        -1.90731278576814    3.61278463548590    7.48011853687252
C         0.49775275467050    4.71425919098787    6.62148964387718
H         0.13834962967666    4.46171250438897    7.61433446374864
C         1.44227075284187    5.71844328895022    6.53436272791785
C         2.87164915437646    7.06994234439499    5.26835170687178
H         3.23618750999777    7.33176314586731    4.27877442007098
C         1.92163851693525    6.37275614433458    7.71830005030915
H         1.51545165483950    6.06000479578526    8.67030056938568
C         3.36337587432754    7.71761969924521    6.37270080152351
H         4.11135731433704    8.48744759442460    6.27625799591056
C         2.85946979741812    7.34946945617153    7.64068179246375
H         3.22494182445383    7.84358717526574    8.53007358858623
C         0.10783165746377    3.03366192755653    1.23748359231935
C        -0.63984812143624    3.74430038799722    0.28284599308632
C        -0.27059651649768    3.67974202830445   -1.05247041897316
H        -0.82960100443864    4.23789420816979   -1.78897600328095
C         0.79598840263080    2.90171695325426   -1.45990757348170
H         1.07090689727346    2.86074724530114   -2.50350568927789
C         1.49752172585613    2.16231642204143   -0.52679098390273
H         2.31029378180723    1.53233264912755   -0.85671197098768
C         1.17181227239206    2.21264638102623    0.82032840260049
C        -1.83934795360182    4.56660342609339    0.69799212925488
H        -2.02254893916981    4.38773825161446    1.76213208664114
C        -1.56042588194752    6.05887814919800    0.51169264024919
H        -0.69723034639058    6.35201588800955    1.10890379722070
H        -2.42198462361443    6.64685908171585    0.82373835658688
H        -1.35268064050523    6.28584917765480   -0.53135941354602
C        -3.09325738722320    4.15006701261235   -0.07527839037669
H        -3.00465839308693    4.40028795318692   -1.12935048689124
H        -3.96634749792883    4.66398335819462    0.32257875938725
H        -3.25606128109294    3.07799294637772    0.00792585391265
C         1.92613370272222    1.35747564257789    1.81559222313577
H         1.58103587117865    1.61907748103797    2.82289916622319
C         1.62024286039274   -0.12374615254802    1.57130012012115
H         0.55180397273127   -0.31091629704003    1.64226873938583
H         2.12676548582228   -0.74086242598273    2.31097987908290
H         1.95580267920803   -0.42777277975761    0.58217877846083
C         3.43490871298665    1.60392005294163    1.75802922896735
H         3.83786077530116    1.35834163649035    0.77842873254016
H         3.93956387298642    0.98231798851926    2.49566867367753
H         3.65437154019712    2.64658539960459    1.97563933515471
C         2.63775795686535    5.39915793287120    1.97493128546169
H         3.63191941904630    5.31368494137988    2.43600937734010
H         2.62458846721839    4.64308605750101    1.18006648375427
C         1.93316667835197    6.86579065919808   -0.68541138786332
H         2.75783308595400    6.61147215702465   -1.34318536395412
H         1.47279983289860    7.76989356617668   -1.07077776446888
H         1.20660403994386    6.06317988222617   -0.75564132447663
C         4.23681416418256    7.98397020527889    1.02591187046894
H         4.64941851544017    8.14817989717795    2.01724988840763
H         4.14634148073526    8.95378697148734    0.54621547472737
H         4.96329064375072    7.40583573297160    0.46351153532706
C         1.36662280886288    8.30190134652178    2.01531117934781
H         0.94716945636711    9.03028861684901    1.32703133929458
H         1.88781831534007    8.85651192326167    2.79047641089124
H         0.53794921695703    7.77714837817793    2.48849812398802
C        -1.06054625565998    7.66000933453022    4.79913672033974
H        -1.56722883892633    8.46175690069404    4.24088957914991
H        -0.01803787919354    7.93036767515122    4.96577721028371
C        -1.81815765540001    7.33484857600704    6.08566638647534
H        -1.14302725339084    6.84070457680262    6.78373989934578
H        -2.22948586219804    8.22484912100024    6.55606546001116
C        -2.89981827247045    6.35970553659902    5.60054485351314
H        -2.97049876732335    5.49140551800790    6.25097617239849
H        -3.87878850926692    6.83483613192271    5.55560815113925
C        -2.42455901951040    5.95662345103683    4.19227488765782
H        -2.39311820607376    4.87546778124252    4.05097126910374
H        -3.06830450081215    6.40923217682733    3.42486566038661
C         4.19810275947824    3.54930698864678    5.16566680776854
H         4.35765995706215    4.57473935256807    4.83132716338341
H         4.96842843832143    2.89664727625175    4.72810112154154
C         4.17565332450120    3.40543590758201    6.69518697857815
H         5.13820553596212    3.06669156946063    7.07342993392346
H         3.93446974995346    4.35888120043548    7.16165432619163
C         3.05511043615667    2.38075415134982    6.94124802070068
H         2.23026607868650    2.84621956520195    7.47755281291079
H         3.39612932204430    1.51210677577533    7.50078221989639
C         2.60810343309880    2.00028635833072    5.52399205164461
H         3.17385771770003    1.12748850722936    5.16433690122497
H         1.53924382480333    1.80293393861132    5.43996803191105

