111
CSD_code = HUVSIB | q = 0 | S = 0 | Stoichiometry = C35H66LaN5Si4 | MND = 5
La        2.98644324234588    3.15513702266224    4.78297519307902
Si        4.23201356730358    5.69225971987705    7.10259467088271
Si        4.98807364359216    2.86405300651040    7.74809611952393
Si        5.66321988255983    4.36148790168304    2.65127594008920
Si        3.23721980976508    3.51230388920690    1.14061386399451
N         1.98854295686700    0.84124389195904    4.74734054245328
N         0.97003924055770    3.05010323534394    6.26146803969439
N         1.04239860758574    5.01317139994689    4.29984294853030
N         4.21338631077237    4.01601133562986    6.73196749472820
N         4.07075492767459    3.68330881014165    2.63455872344802
C         1.78548527830314   -1.30997943039348    5.93184145975723
H         1.51966404643655   -1.73876444311314    4.96843466911340
H         1.11717578861168   -1.69819561811685    6.69628734183880
H         2.79787840711002   -1.63261522285101    6.17714332449250
C         1.74360893636629    0.20407566214401    5.88182439636650
C         1.43264413089349    0.85313315354578    7.07857079572438
H         1.38468620837394    0.22171453010029    7.95432726782925
C         0.99599682796495    2.17441752360566    7.24819287037823
C         0.43295242158861    2.51888599141633    8.60764451721538
H        -0.64690630573617    2.66077806529284    8.55103867120243
H         0.87818507895155    3.44095506192082    8.97763875164628
H         0.62969234234271    1.72652901720215    9.32330881189746
C         0.24966086387234    4.28679077999603    6.48569707904415
H         0.78837907158499    4.92906299077575    7.20579351160909
H        -0.75124936483577    4.09795624071050    6.90126288440572
C         0.08811419587838    5.09787751132983    5.22626588914349
C         0.96175193039176    5.79446418643043    3.22439095184830
H         1.77661903987441    5.70498719869230    2.51833681326283
C        -1.00327919473497    5.95264578953564    5.07987008259063
H        -1.76480655934416    5.99164203347244    5.84407540724963
C         1.81395972200398    0.15791288192390    3.51749017038366
C         0.52908656392541    0.16956159902761    2.94102169787915
C         0.34194971935108   -0.44937184498394    1.71484392146661
H        -0.63838086908626   -0.46102893124020    1.26423532129427
C         1.39465711603019   -1.05403985943620    1.05231748953302
H         1.23282366837506   -1.51940285879544    0.09114530524619
C         2.64982671859584   -1.07236156098596    1.62882906037832
H         3.46210842807642   -1.56226121920502    1.11326136454848
C         2.87364122001924   -0.49130595035036    2.86901386744965
C        -0.62700242596341    0.82328330752180    3.66974681303462
H        -0.21081487127839    1.57254113133436    4.35684136937687
C        -1.38107147493630   -0.22156831997302    4.50007062121855
H        -0.74030404958608   -0.63682077491096    5.27106423439040
H        -1.72975445729200   -1.03200979323726    3.86233347270620
H        -2.24366494012880    0.23482907114904    4.98151632349066
C        -1.60994266039813    1.52976009987321    2.73392405341962
H        -2.20281807369648    0.81317013948307    2.17001635394777
H        -1.08698814189353    2.17637186736002    2.03579466573207
H        -2.29548952930113    2.13952889524425    3.31982695688588
C         4.23385134192109   -0.58018105611586    3.52234190809606
H         4.13530560320447   -0.22846358016000    4.55400264153465
C         4.74165471377453   -2.02476526934693    3.56911492358884
H         4.97947783205020   -2.39104691311775    2.57376784266334
H         3.99400870256698   -2.68385352200381    4.00521049290388
H         5.64530040326087   -2.08034770748523    4.17269500480731
C         5.24390949074227    0.31870438757050    2.80473427297312
H         4.89256770053872    1.35262283431655    2.78165544541203
H         5.38856328381233   -0.01547510591989    1.77984476604967
H         6.20602813479335    0.27963990297166    3.31308982347521
C         3.29745538750057    6.64272730305068    5.72041314378114
H         2.23903745449145    6.75034206968134    5.93931394553255
H         3.40928426213901    6.14176781679263    4.75739669370920
H         3.70069005887564    7.64532670514782    5.61509931155041
C         3.37806498113651    6.13209690382545    8.76588138256151
H         4.01196739384644    5.85398487846254    9.60060379808260
H         2.43655468336839    5.60480676433369    8.88576286316168
H         3.17475142537907    7.19516853160657    8.84776086819047
C         5.95866162596090    6.51886497731229    7.17592464712694
H         6.52262139118657    6.32849490919876    6.26929427767601
H         6.54164451289946    6.14477251963051    8.00826160043519
H         5.87682558335532    7.59543549121100    7.29273862403540
C         4.07130791279042    2.44727036129984    9.37888154738564
H         3.13579660603972    1.93744698029514    9.18356644286579
H         3.84775277191145    3.34864930522334    9.93781903573092
H         4.67161494258382    1.80589579302974   10.01628224548645
C         6.78010466293336    3.28008759086580    8.27919736062528
H         6.78267844375719    4.05309660610687    9.03970058435632
H         7.37224517106000    3.63680103720314    7.44428330253507
H         7.28351666084089    2.41327715293180    8.69624146976883
C         5.07886892123774    1.23856148389368    6.72868896308223
H         5.20302319333575    1.45529362564806    5.66319646042319
H         4.18020779869010    0.64561802970458    6.87624584628544
H         5.92238321227301    0.62707764669711    7.03479846673792
C         5.68358588185070    6.28131408893499    2.64360164509821
H         5.34072154673907    6.69058825324070    3.58761565971136
H         5.05099931756287    6.67913698416511    1.85790455264534
H         6.68825610454490    6.65509112836900    2.47294236233234
C         6.57057692921782    3.79535019379817    4.23655713342357
H         6.83661447952583    2.74323083871641    4.19859457440954
H         5.97244013844988    3.97282650211545    5.12872377161433
H         7.49560130879292    4.35173770383974    4.35299064334770
C         6.78003034538746    3.83012578602863    1.19006398536270
H         6.36600408713796    4.16001803802110    0.24429094676196
H         6.88934318612041    2.75197614778529    1.14426508609085
H         7.77411741867380    4.25625679814739    1.28065638814477
C         3.24579345857644    5.08869113454514    0.04269765326022
H         4.23804085386534    5.25669442380072   -0.36051032496782
H         2.96846496665517    5.98346463441638    0.59173315681496
H         2.56299677784927    4.99420957600386   -0.79618823404547
C         3.83415740686852    2.10362993255586   -0.01269889466091
H         3.56115976430557    1.13174916844230    0.38489337147322
H         4.90874516145613    2.12114863379163   -0.14663053912587
H         3.37958644919852    2.19250829152174   -0.99502128657444
C         1.39829876586929    3.09020317097349    1.48945295708021
H         0.72764503506633    3.88189548811656    1.16959725884575
H         1.22106746050118    2.90193638388712    2.55041875985835
H         1.12312933354330    2.19156906244963    0.94850377849046
C        -0.08115052087833    6.67664244804457    3.00713407519473
H        -0.10266223401683    7.29085876784262    2.12134432834846
C        -1.09305024784829    6.74915307257340    3.95396277170895
H        -1.93020643496474    7.41786577954561    3.81922232125763

