111
CSD_code = HUVSAT | q = 0 | S = 0 | Stoichiometry = C35H66N5Si4Y | MND = 5
Y         4.64450705357563    5.82250539883798   12.71005237745769
Si        7.91602509517295    5.78366373327215   14.07301884117733
Si        5.87675616981822    7.11802297482282   15.76318244632689
Si        2.91060601549465    3.27405172403426   10.97719521779113
Si        4.09489369245426    2.42854740063667   13.59256703949334
N         2.78494257307904    7.37847809614129   12.48827451190339
N         5.38619077636413    7.67362030141515   11.39827299559738
N         6.12813801268260    5.11265861296084   10.74875678663820
N         6.26156504953849    6.18872333390744   14.35736844808974
N         3.74147945613383    3.66762059090758   12.43554575164067
C         1.89780024743413    9.50810488647089   13.39284362437692
H         0.92734597401687    9.03302585589256   13.27663779475854
H         1.89089689232280   10.46491806842149   12.87550683818019
H         2.07270340537640    9.71033628482172   14.44971267377049
C         3.01403812156100    8.62843711892267   12.86788207891457
C         4.26092055637943    9.25277728717750   12.78174888425332
H         4.32026517398418   10.23571517416777   13.22620295461904
C         5.32803656076483    8.86769697368815   11.96275147135962
C         6.33406031262677    9.95086415685803   11.64187705117554
H         7.34987943791313    9.60861532908225   11.83507833904241
H         6.15201265750901   10.83240691537834   12.24904274299305
H         6.26392811383093   10.23778682782855   10.59248483041374
C         6.29552612468383    7.50640031495653   10.28497041312333
H         7.27459874342866    7.97294463262388   10.46957234011342
H         5.87337872556763    7.99732124984545    9.39170868287357
C         6.56730752956754    6.06790510163508    9.93353740495913
C         6.39572699166557    3.84145343790837   10.44716694073163
H         5.98553867992203    3.10641061217250   11.12590952418849
C         7.29675634692016    5.77549880727823    8.78033312343113
H         7.63314967563662    6.57724477319015    8.14008588684456
C         1.46998216247255    7.03131261852877   12.09070725172158
C         0.97322157938389    7.54138389582127   10.87329896185477
C        -0.28904838229972    7.15488191913611   10.44833733231666
H        -0.67432588657665    7.53350224422808    9.51342465752594
C        -1.07604619018640    6.31291394147920   11.20838102461128
H        -2.06269423043074    6.03508641756814   10.86829754134547
C        -0.59799087202063    5.84114595220549   12.41552023070934
H        -1.23073420190843    5.20806261053223   13.01735342959006
C         0.67069793394421    6.17652742557369   12.86797031107179
C         1.74747790613282    8.53699160920174   10.03293632570675
H         2.70819876200006    8.73575772003489   10.51472468085148
C         0.97335049534072    9.85701615009666    9.93232168508491
H         0.07994750728028    9.73343628506274    9.32482884259608
H         1.59473540108523   10.62212394304297    9.47099667903731
H         0.66732821947887   10.20621650974168   10.91427413859931
C         2.03624036774850    8.01329373380179    8.62379830878035
H         2.67982546982117    7.14013013434867    8.66224047503803
H         2.53656079961366    8.78570004853477    8.04175160381094
H         1.11747876027973    7.74291762967787    8.10906840302661
C         1.14372970566352    5.68721649774529   14.21873970824703
H         2.24888020774712    5.71149966697786   14.22310853623986
C         0.72463443752581    4.24938217452421   14.51741972983343
H        -0.35013007487070    4.16654825070832   14.66218128396384
H         1.20732634370470    3.91405740729765   15.43300065827413
H         1.03269841749774    3.60030692520172   13.70587597755293
C         0.60779160960031    6.61024657624436   15.31945571523026
H         0.97243704364949    7.62499435538766   15.19769269626636
H         0.91848885383670    6.25101352970052   16.29793695939301
H        -0.48049080219072    6.62970713414794   15.28937231441761
C         8.74811124008056    6.81368067418413   12.67617026328132
H         8.52860284807734    6.40716551973134   11.69427840477302
H         9.82749709509123    6.81623675087157   12.79053357177879
H         8.41644170753520    7.84586163725566   12.70537090880404
C         9.12051667401244    5.99057002763867   15.54363499090481
H         9.11292871895575    7.00319506382266   15.92939910080098
H        10.13842194122936    5.76232491657516   15.24183096595868
H         8.86697019740379    5.32500813642277   16.35940675228191
C         8.11456368341090    3.94832961825077   13.57038177073416
H         7.70051291675033    3.28952641968079   14.32546039994888
H         9.16470838460778    3.69728651098183   13.45585295386615
H         7.62350235877791    3.73766891097963   12.62696727313210
C         6.56795650971648    8.90521163202905   15.69101295419690
H         7.64826683520049    8.89351621195335   15.59480170961753
H         6.32189671905244    9.46849654001203   16.58556478644792
H         6.16925866845866    9.44286886445813   14.83750184956539
C         6.42543559301122    6.35820995144591   17.43734766277156
H         6.46606573659227    5.27573134227313   17.38132091251708
H         5.73030987598223    6.61878564819307   18.22978193932304
H         7.40517856008890    6.70924128270522   17.73774983016470
C         3.97788525689923    7.23738820733415   15.93792575623280
H         3.51869864581252    7.63543843428978   15.03958748873896
H         3.71431727198410    7.89861399994143   16.75786117248325
H         3.54676250797901    6.26543353588760   16.15724691684142
C         3.54798657267537    1.71973150327680   10.04154260300784
H         4.59569809920531    1.78327044532575    9.76798865311377
H         2.98408973500160    1.56690046476438    9.12629812365156
H         3.41942831517761    0.83232848775911   10.65136097279647
C         3.09477987678093    4.74504916513095    9.76241518206682
H         3.33172928609400    5.66514224499347   10.30163916258597
H         2.16449439307799    4.90366575528863    9.22774824576566
H         3.87223170224380    4.57103161549934    9.02356585426946
C         1.02728943462802    2.93630987707572   11.10041062534773
H         0.80708113779897    2.15213545467250   11.81605387198976
H         0.64164833336588    2.61142532905081   10.13829755491367
H         0.47229653790708    3.82216993615509   11.38822539372186
C         5.54976255786783    1.26762372296741   13.10189306097404
H         5.35089835950651    0.77534151118659   12.15548752820911
H         5.67764304526779    0.48826455201896   13.84742074008902
H         6.49820605602777    1.78449377468925   13.01580685067451
C         4.54151213188585    3.29081369204582   15.23861021489391
H         5.21782951024692    4.13082324181695   15.07489532535967
H         5.03455272024459    2.60078358333026   15.91597839268886
H         3.65677652385273    3.66132486361990   15.74755725613058
C         2.69645965373429    1.16256132066178   13.93524866187148
H         1.81620601696750    1.60501323967048   14.38506457861518
H         3.04609785637081    0.38408595720671   14.60633416652616
H         2.38846133467331    0.68198965234875   13.01316272646146
C         7.12298472902596    3.46734403758847    9.33264559423210
H         7.32251595634231    2.42636426156444    9.13467276101385
C         7.58469030516230    4.45959249164878    8.47802995542703
H         8.15339436342270    4.20940069991446    7.59475212949585

