43
CSD_code = HUVSUN | q = 1 | S = 0 | Stoichiometry = C19H18ClN4Pt(1+) | MND = 4
Pt       -2.78063352726333    2.57318438787115    4.06744487930998
Cl       -3.03975910678117    4.24753979414076    2.65678846959134
N        -0.45649656439209    1.24628525940011    4.96318348987165
N         0.33946512939423    2.69872147670741    3.56878022186075
N        -2.65504612667359    1.13324925401722    5.32640415026188
N        -4.82599569470452    2.36487815230540    4.50164713174557
C        -0.80185827649154    2.26579083116051    4.09940794725934
C         1.39177557208899    1.97729731740248    4.06751015992481
H         2.40294418573779    2.16446990546354    3.76872060004166
C         0.90238437402419    1.06848107889686    4.94556211430644
H         1.40750716554023    0.33494834940184    5.53842228561324
C        -1.47984527711717    0.60957496878525    5.65947345186492
C        -1.40980945153766   -0.43096786307091    6.59134355463444
H        -0.45970219641895   -0.85976912107977    6.86428678933167
C        -2.58125633885884   -0.89856612239964    7.15659662586336
H        -2.54489758082829   -1.70080208285916    7.87684086691973
C        -3.82875725262668   -0.33901694313459    6.80688362445105
C        -3.80163813496808    0.70131117271915    5.86276755707198
C        -4.97549175804106    1.36850354877386    5.41488953222625
C        -6.21864973098333    0.96794509276227    5.93913548193585
C        -7.35418830423366    1.65554919197145    5.47293810391066
H        -8.33373316454429    1.39092039924391    5.84075910734491
C        -7.18918992067668    2.66196198039347    4.54878268522145
H        -8.03756006156285    3.20948132826932    4.17113213689697
C        -5.90952661274190    2.98988626272252    4.08514401168737
H        -5.76663078724479    3.77997362411681    3.35907271178101
C        -5.10538046132338   -0.71884179579310    7.31338230147399
H        -5.15610443000294   -1.51593101990624    8.03862516088062
C        -6.23883519359201   -0.09272816312548    6.89594184385190
H        -7.19819042109323   -0.39194935480159    7.28976182397725
C         0.44168042149440    3.70717274445059    2.54111477820652
H         1.44000628147966    4.14624240047579    2.58067482794934
H        -0.30940930256951    4.47417212655148    2.73884170873415
C         0.18312106614726    3.08494674647033    1.16482884288797
H         0.84334117315702    2.22457574808025    1.03030912200177
H        -0.85146618306682    2.73343345489809    1.13791850996951
C         0.41647220635502    4.07960142523983    0.02888221842319
H         1.45112842052731    4.42753027630223    0.05540999369937
H         0.27236454455886    3.54936306511442   -0.91362857484493
C        -0.52870436742804    5.27351598862972    0.07678971373783
H        -1.55943284385678    4.94084222471851    0.16464669882551
H        -0.43250440431333    5.85882903942723   -0.83339844714836
H        -0.30499706457011    5.92409384928692    0.91788178644676

