20
CSD_code = HUWFUB | q = 0 | S = 0 | Stoichiometry = C8H5FeI2NO3 | MND = 6
I         3.62599117815090   13.29753589173421    3.67380783331946
I         7.47494610607480   13.58883619806568    4.36286506196364
Fe        5.85800880983968   12.44336166996669    2.72348973655151
O         5.92953302752167   14.96771276183212    1.27685883411866
O         8.27967764015589   11.64600502884736    1.34938365833471
O         4.18527461051080   11.32949105384486    0.63705581770417
N         5.78831582702706   10.71888674720188    3.86853318040725
C         5.90016861764417   13.98628415818138    1.84408257813123
C         7.33658194392978   11.92868919830303    1.91958700869235
C         4.82946900767737   11.73663074930013    1.48183083833329
C         5.54579111238140   10.75573074024488    5.18003550791525
H         5.38039546466926   11.72343799044289    5.63162002572903
C         5.49842963561303    9.62231701484055    5.97319687782890
H         5.29705872264894    9.72359069363622    7.02704659830662
C         5.71181000180289    8.38520932889224    5.39235213895663
H         5.68337575160658    7.48062444888001    5.97959472777573
C         5.96424502914101    8.34065116647406    4.02926303915099
H         6.13817209835225    7.40567186796727    3.52142434135492
C         5.99261284840769    9.52069159764046    3.31256342294485
H         6.18764256684505    9.50294169370398    2.24820877248093

