24
CSD_code = HUWFIP | q = 0 | S = 0 | Stoichiometry = C8H8FeI2N2O3 | MND = 6
I         0.98879351725736    2.77432229868853    1.88343112086953
I         2.34199038362815    6.36578569965886    2.43755135518084
Fe        3.20793286274739    4.06675859675859    1.54237181360518
O         4.10056123111075    3.82933925798180    4.31172429489289
O         1.79347291195252    4.93912047054062   -0.87244195385492
O         5.70853580414058    5.41753715079387    1.02639577188559
N         4.29770603678361    1.22284236131651    1.45981453666816
N         4.44468034787548    2.16830065207222   -0.46529438381620
C         3.75427633993952    3.83631114447775    3.22825073472978
C         2.38765055810215    4.55637575124208    0.01789014609325
C         4.71186825112550    4.89184695264774    1.21029671124030
C         4.03452499655546    2.37596261828180    0.80701948045695
C         4.85259396435668    0.31001991254505    0.60725070434412
H         5.13142517149014   -0.67353347635744    0.92324484305090
C         4.94305344187027    0.90183864406886   -0.60353021205896
H         5.31213265932964    0.52977969637841   -1.53643314807608
C         4.08290673899224    0.92253607683061    2.85104276814022
H         4.86416247751753    1.36926760254474    3.46831793392960
H         4.10781163992456   -0.15715275189408    2.98454810348640
H         3.11011922426920    1.28439041311475    3.18068996606983
C         4.38109245121494    3.08105420415637   -1.57631342645691
H         3.39164869696973    3.06315358892984   -2.03751074334249
H         5.11573801309519    2.78109808497164   -2.32178318407444
H         4.60612227975309    4.09704505025043   -1.25493323296366

