51
CSD_code = HUWGAI | q = 0 | S = 0 | Stoichiometry = C25H19FeINO2PS | MND = 6
C         9.48159124094907    3.66855434506286    4.19515434148069
C         8.11374716724643    1.56683078921226    3.93779550813434
C         5.42628955770863    4.39526750181150    3.49669902946687
C         4.11716282798419    4.75858879073587    3.17810217357780
H         3.82114489528031    5.79132907051856    3.26319000433039
C         3.25838834217832    3.77252039565075    2.75152314011463
H         2.23808529015286    4.01253385186455    2.49365946597944
C         3.71931275189458    2.45983460001485    2.64050377329573
H         3.07166852155271    1.67230166241971    2.29244263201382
C         5.02622995871960    2.18109707154194    2.97415481162483
H         5.43508309940987    1.18291376158454    2.89399009406814
C         7.96885755106746    4.76641416453269    7.03848939740217
C         7.69797737173719    4.75534408112798    8.40620890613485
H         7.06762780136958    3.98079772828332    8.82236692499396
C         8.22969840479032    5.73375848187390    9.22317166163944
H         8.01280221608235    5.72531791441049   10.28123930965374
C         9.04169430132405    6.72145926967706    8.68670645332474
H         9.45903806086714    7.48301620992228    9.32832478062099
C         9.31538878894298    6.73260271968804    7.32974457512495
H         9.94487790331417    7.50202739516336    6.90891247356465
C         8.78080287078027    5.75841846758208    6.50472391738774
H         8.98094580786429    5.78331198406530    5.44306294393297
C         7.82990819030437    2.00687471279337    7.03182281126922
C         7.05306672812464    1.37957336552559    8.00034449870136
H         6.03252120047701    1.69312391177611    8.17156488248653
C         7.58241740012988    0.34163309995681    8.74761854613444
H         6.96936439898911   -0.14467554201963    9.49228626331533
C         8.88765033520373   -0.07258388655793    8.54534664686650
H         9.29344834228937   -0.88563145906052    9.12817422259293
C         9.67305613224726    0.55976304900415    7.59480902617769
H        10.69364611152849    0.24547325403500    7.43630250960853
C         9.14625378599057    1.59321252844273    6.84477146910685
H         9.75532575587151    2.09000376164897    6.10130022398093
C         5.48763441276064    3.48780735924349    6.36571082105698
C         4.85002527515147    4.66316911816229    6.74668107085507
H         5.43283073771962    5.55447495143413    6.93487072539320
C         3.47180354430978    4.68736163371709    6.86671217480709
H         2.97705623091387    5.60024670338710    7.16321926929965
C         2.72737240903504    3.55105484690133    6.59602909487727
H         1.65152549612460    3.57770548735774    6.68325606950207
C         3.35933391139896    2.38040116427350    6.20587150193504
H         2.77858223386886    1.49634090360088    5.98764206746128
C         4.73510882626393    2.34835690021964    6.08495835363618
H         5.24109917826367    1.44401314752424    5.76821454613504
Fe        7.78499041433439    3.29126177850265    3.90392173152584
I         8.39733982220458    3.53082701760590    1.44237508713782
N         5.85693730193652    3.12345380743531    3.40936761784252
O        10.60150185892567    3.86172215262156    4.30768545111385
O         8.31597856097175    0.44324192146694    3.96684574683858
P         7.27062140965895    3.42616770947751    6.02049084281696
S         6.68108526379059    5.44428634479133    4.02254040969004

