52
CSD_code = HUWJAL | q = -1 | S = 0 | Stoichiometry = C26H11F10N4Pd(1-) | MND = 4
Pd        0.04518238025299    4.01580882233590   17.43954615252724
C         0.33288695171811    4.73189789220929   19.26897816736260
C         1.38580413918394    5.62508854010395   19.42933420343213
C         1.66293150708852    6.28273271925574   20.61691911033527
C         0.84303158720287    6.04633876958918   21.71604041160669
C        -0.23271230571440    5.17283489000628   21.60129536278044
C        -0.46593388703411    4.53871647583091   20.38836468584455
F         2.14520648095255    5.86005102059052   18.32724059531914
F         2.69109276008816    7.14934784495730   20.72904352973768
F         1.08251142604994    6.67487080032144   22.88581096301550
F        -1.03465793902978    4.97024809020042   22.66727399768953
F        -1.53013065195880    3.71281317595299   20.26820098578120
C         1.18818682093129    2.45592327321116   17.78752213456403
C         2.43106562587232    2.47745623510209   17.16735479239162
C         3.31431510763034    1.41036922938358   17.19151582935604
C         2.94154742061478    0.25380884805401   17.86974397234104
C         1.70657931428964    0.18815575499235   18.50495755496515
C         0.85647735568689    1.28520651023750   18.45228042863639
F         2.75069492746383    3.61957503532516   16.50624208070695
F         4.51431739126827    1.46200727989779   16.57711600378434
F         3.77957915340609   -0.80341329834762   17.91214761733928
F         1.36107603772768   -0.94069153430373   19.15893814648282
F        -0.34098450397513    1.22930945207545   19.07358968790726
N        -1.08459594431342    5.67210455970691   17.04780871340818
N        -2.92900628592673    4.36115814141572   17.80736366510449
H        -2.45894117680714    3.42992313878510   17.68852885951463
C        -0.70671472306919    6.90000850381310   16.72105706147552
H         0.32453133165569    7.01751473647372   16.40917800889238
C        -1.56902507426153    7.99755747648154   16.77477805162322
H        -1.19011350179594    8.96935271072160   16.49653228404954
C        -2.88105684966072    7.85357477364989   17.18725164782837
H        -3.54685094409226    8.70300036447336   17.24449812621491
C        -3.30882588942423    6.57224456988172   17.52855493801873
C        -4.50247932863458    5.95481216133193   17.98718892289928
H        -5.43765293306205    6.44217137278787   18.18179501264900
C        -4.22394743851014    4.62318490782963   18.13145424153590
H        -4.87237543439870    3.83321197119493   18.45860110216265
C        -2.35156341072336    5.52161324837565   17.42913954911485
N        -0.25986023483548    3.24550683965232   15.55985246440052
N        -1.94925990887346    2.02397402827063   16.68771655711152
C         0.36005583144050    3.10804636398229   14.36042479914700
H         1.13109733578434    3.80311649960182   14.06939729613750
C        -0.12412622761538    2.03922335056119   13.64047872022949
H         0.19339646790996    1.72471272714247   12.66346702706816
C        -1.11241329433320    1.43410372099300   14.45013048626651
C        -1.96936236034184    0.34169699687678   14.39904878130579
H        -2.00101265668515   -0.31249962112817   13.53621015028819
C        -2.78127547010801    0.11281523417591   15.49699510262608
H        -3.45852073092214   -0.72986999552024   15.50914408374958
C        -2.74235208966039    0.96849283452028   16.59840338437258
H        -3.38511403096179    0.79075199513781   17.45177310722353
C        -1.14700212746793    2.23664056182935   15.63947144168045

