33
CSD_code = HUWKAL | q = 0 | S = 0 | Stoichiometry = C8H20N2Se2Zn | MND = 4
Zn        4.30199969338119   -6.24324803508358    5.98897390676791
Se        2.18499049189182   -5.11505489622556    5.60015321150235
N         3.16443330379403   -7.88257131498705    7.11883155515369
C         3.83546949044861   -8.25479989787091    8.36030532037895
H         3.31304429829814   -9.07618886070994    8.86602375062490
H         3.87433294419415   -7.39966208750914    9.03406725251521
H         4.85190758238034   -8.57329969245789    8.13277681437101
C         1.81720908471468   -7.38293796786497    7.39877469716324
H         1.89006516085637   -6.66504175556108    8.22134381924699
H         1.16456602867923   -8.20998330958958    7.72180672971032
C         3.12019665645844   -9.05626188474808    6.24760607984768
H         2.58437951827135   -9.88428399632895    6.72768196238523
H         4.13893898080340   -9.37416217592475    6.02440396475125
H         2.62807310595726   -8.81346002501757    5.30833457738366
C         1.16614660560753   -6.68598205386758    6.21650839702914
H         0.18526363226112   -6.31188985237155    6.51079360984717
H         1.04223464615233   -7.35023177597329    5.36164721423032
Se        6.41901005455372   -7.37144381178295    5.60015678715814
C         7.43785368188279   -5.80051386818603    6.21650795431750
C         6.78679196207072   -5.10355799659953    7.39877463273618
N         5.43956759376069   -4.60392524547414    7.11883157161766
C         4.76852872170051   -4.23170017508773    8.36030495495221
H         5.29094794964794   -3.41030799459948    8.86602326594318
H         4.72967105916618   -5.08683789823730    9.03406724633513
H         3.75208876516423   -3.91320729592599    8.13277556325143
C         5.48380395324176   -3.43023315011761    6.24760833468923
H         6.01962805583471   -2.60221465204015    6.72768288283517
H         4.46506160495118   -3.11232809055429    6.02441276082016
H         5.97592119870885   -3.67303475462337    5.30833359523439
H         6.71393734062270   -5.82145364939910    8.22134420550108
H         7.43943529290806   -4.27651235606235    7.72180510832798
H         8.41873746856776   -6.17460475502620    6.51079217468207
H         7.56176407306866   -5.13626472419087    5.36164609869132

