89
CSD_code = HUWKUF | q = 1 | S = 0 | Stoichiometry = C28H48CoN10S2(1+) | MND = 6
Co        6.14643178740278    3.78221735932981    4.30327165526668
S         6.19636455270385    2.20769543056573    5.92548210133314
S         6.00532619262843    5.38818322426148    5.89116880035010
N         6.43820217422525    5.16716711815166    2.98660363506200
N         5.80767451720671    6.07686125055220    2.23614038535969
H         4.80104482508003    6.14823903689538    2.23115025336212
N         7.99243588620768    3.65368600293615    4.31424103678906
N         8.64625448943817    2.75735680531940    5.01653170457505
N         8.50728230416410    1.03804147044920    6.52368965516733
N         5.93390743244474    2.38144026628498    2.99425867046824
N         6.61325150337341    1.47211011210014    2.28708326041356
H         7.61785024863290    1.39348807506796    2.35509844956127
N         4.29740072851592    3.88322640333225    4.23644097405899
N         3.59166000012700    4.72840959279042    4.95146081226590
N         3.61692326657460    6.33762885976658    6.57603766108639
C         6.24134037290780    7.93642940549866    0.65299000786893
H         5.57975456245900    7.55101088392593   -0.12160855927960
H         7.10212615531112    8.39824312208231    0.17983402568300
H         5.70007116527837    8.69927003897727    1.21136180362475
C         6.68448047961181    6.84803282601590    1.55414049169026
C         7.94763383831423    6.40397243946340    1.88511910806497
H         8.88249157964692    6.78634535475113    1.53415705591348
C         7.75213299970030    5.34936649754569    2.79338509388707
C         8.61137118879189    4.47804259812530    3.52495968803345
H         9.68832329011097    4.49666331147085    3.44180593551318
C         7.91802397900432    1.99437772851360    5.81447277338470
C         9.92449453665012    0.77808371379579    6.36529861369547
H        10.34481185207364    0.55593958138992    7.34844878060991
H        10.38910946437743    1.68357344256304    5.97339152221193
C        10.18512504393765   -0.39358447431563    5.41239226794671
H        11.26423067774607   -0.53580233457672    5.34226169518320
H         9.75529866463152   -1.30971037146929    5.82250841347624
C         9.61221985387396   -0.15175433941521    4.01710290259122
H         9.99917014024859    0.79608556335248    3.63570400530777
H         8.52361574931444   -0.07228235827883    4.08905889110248
C         9.97478399190700   -1.28173208478930    3.06087941145758
H         9.57582563791425   -1.09489855286424    2.06603867615251
H         9.57560819957517   -2.22797726811617    3.41834761732529
H        11.05436569706591   -1.37774991745816    2.97945018123473
C         7.77012006497075    0.23466102824495    7.47347917510535
H         8.28230558083549   -0.72330168217006    7.57856284085173
H         6.76553811933730    0.05147140948506    7.08083480484929
C         7.66569857249832    0.92319871390433    8.83671239594212
H         7.15480226319201    1.87962619542680    8.71224593691112
H         8.66876576504710    1.12537763561241    9.21852192017510
C         6.90043991942667    0.06198837585379    9.83771198223065
H         5.89833500109023   -0.13314118284714    9.45074425531981
H         7.40699195565952   -0.89894737652850    9.95078293797591
C         6.79696805743370    0.74332974988516   11.19606142279664
H         6.24886606880063    0.11637966036033   11.89411155787871
H         6.27714729994635    1.69435866123346   11.10726187156174
H         7.78626924567762    0.92997773906893   11.60736819528174
C         6.28451787362532   -0.39643695926903    0.69173460429053
H         6.77885695441228   -1.15901109759391    1.29286955700128
H         7.00357434665359   -0.01748394166730   -0.03324756550018
H         5.45891969765045   -0.85675191577060    0.15810774594691
C         5.78190092565580    0.69813270951220    1.55353459234000
C         4.49959085241762    1.14247859607182    1.80051484594697
H         3.58943572139837    0.75927304810188    1.39047332389910
C         4.63527498943981    2.19973453503982    2.71717053883568
C         3.73060272018695    3.05841293829777    3.40858038053050
H         2.65813420554024    3.01440032131552    3.28604358581223
C         4.27140949429706    5.48626530827770    5.79590795825111
C         2.16894647599948    6.39857045621680    6.52693912235682
H         1.80855143172390    6.69978268493603    7.51217667186091
H         1.78887727339602    5.40119492147174    6.29809449759020
C         1.68204704700298    7.38656615045188    5.46512916980860
H         2.11526112985111    8.37103713552184    5.65579414864274
H         2.03049269324274    7.04757898842394    4.48765931133343
C         0.15915577865807    7.49295843865426    5.45762013245951
H        -0.18371464007649    7.83523618420922    6.43583341859934
H        -0.26898720665565    6.50415669668247    5.28291880624276
C        -0.33112098800866    8.45682965001597    4.38451468433197
H        -1.41549204026202    8.52209526149304    4.40083874935890
H        -0.02375336249968    8.12042447073311    3.39679005529601
H         0.07353996919272    9.45271195688834    4.54958394358382
C         4.30675235908244    7.18763824910449    7.52078338354758
H         3.70916207798075    8.09030634558142    7.66420999763358
H         5.27279776350399    7.46819322105949    7.09517727065490
C         4.51809752535204    6.47954863474078    8.86253303452113
H         5.15398060562295    5.60709583662078    8.70259562353021
H         3.55192714083306    6.12802733775874    9.23175911618263
C         5.15587739636010    7.39114268080112    9.90953034237791
H         4.54154083796841    8.28510497091630   10.03608088677362
H         5.16341623395416    6.85954026812423   10.86272022865155
C         6.58268337167532    7.79694940248853    9.55946432130697
H         6.60672932819009    8.45366057924643    8.69373951298953
H         7.18535444304501    6.91819051327322    9.34215109081752
H         7.03599263035119    8.32557068055328   10.39391415770607

