117
CSD_code = HUWLOA | q = 0 | S = 0 | Stoichiometry = C54H54Cl2N2P4Ru | MND = 6
Ru        2.49630892589224    2.32967949066184    5.44871776195111
Cl        4.59931077760300    3.20210593096315    6.26744098462188
P         2.06359749801628    4.00952917251454    3.94508122670747
P         3.34768975734940    1.70385950349746    3.39643118400511
N         2.84651350056101    3.17973906069778    2.64474851721982
C         2.66045050135850    5.73583996318317    3.88523425767109
C         2.03748262258640    6.70183104708860    3.09972108813954
H         1.17714844233805    6.44219146388436    2.49747479814413
C         2.51129746477992    8.00094940211204    3.09751023000360
H         2.02733190929033    8.74631350475947    2.48250390327319
C         3.59635829653371    8.34953672674514    3.88584576059622
H         3.95770928500249    9.36780221258972    3.88444303452894
C         4.20927861096679    7.39443923869895    4.67954368456244
H         5.04868489393060    7.66235113474253    5.30413724594875
C         3.74478982013218    6.09162210049986    4.68075466646976
H         4.21631854054646    5.34429505195903    5.30395447302363
C         0.33492893339831    4.26728334006188    3.43360394389909
C        -0.51184148577800    4.68494578851500    4.45632536132683
H        -0.09937145381240    4.82854340814048    5.44935405111064
C        -1.85735234399945    4.87592520508308    4.21816593316554
H        -2.51000474543525    5.18501775872471    5.02196887114552
C        -2.36779998590435    4.65331983167993    2.94849890951888
H        -3.42168028192784    4.79423838902685    2.75766040338039
C        -1.53066151478844    4.23787286338336    1.92729564670907
H        -1.93164681696514    4.05800437894119    0.93974789500522
C        -0.18137904271612    4.04155025975043    2.16605462039856
H         0.46591921639289    3.70754351322652    1.36818477374018
C         2.44434164995210    0.32294718052526    2.62843150521235
C         2.79214889288607   -0.94100143062956    3.10092632226833
H         3.61730594643764   -1.03745397560715    3.79805951243553
C         2.08497700159078   -2.05668294586143    2.69990571525347
H         2.35785994724595   -3.03225561601697    3.07624057485979
C         1.01518241768960   -1.91699230907770    1.82958770166692
H         0.45666297310112   -2.78749393997898    1.51736959768388
C         0.64725698298011   -0.66019104423426    1.38003509889882
H        -0.20439480489660   -0.54886763721844    0.72449327655949
C         1.35086192180361    0.45939995841483    1.78602486822426
H         1.03119697958037    1.44345491769730    1.48056554281990
C         5.05389344844461    1.36207351588658    2.83963178487119
C         6.10013943048628    1.98879497708865    3.51061930178846
H         5.87968415450959    2.65931922084674    4.32911601703657
C         7.41010493612038    1.74131081305862    3.14325219641042
H         8.21486258061600    2.22815114865334    3.67395240899396
C         7.68747672984631    0.86924363640897    2.10330222601410
H         8.71025816923587    0.67506681850502    1.81419168981753
C         6.64960117148035    0.23861790828398    1.43624902324331
H         6.86196589185917   -0.44589060666149    0.62736795878385
C         5.33741302372870    0.47594588699009    1.80393973828854
H         4.53610071398320   -0.03526963823620    1.28763989777078
C         3.29814528826850    3.84864538560622    1.42301692477668
H         2.63188498406653    4.71522221936264    1.30083792465048
C         4.72897068283641    4.37617731322406    1.54542455380898
H         4.86949678850936    4.86271127293043    2.50798409138534
H         4.92233962255194    5.10114923545411    0.75752357393133
H         5.44679257368778    3.56539961164480    1.45704668174371
C         3.17358401571846    2.94405534537640    0.20145634915937
H         3.72596941130676    2.02199020549590    0.36530929337016
H         3.58770309463530    3.44856015178597   -0.66875749329423
H         2.13663823413135    2.69484721447515   -0.00881436000001
Cl        0.39338858529114    1.45698934705603    4.63030830831107
P         2.92861771336200    0.64934406314638    6.95208925612560
N         2.14529037175144    1.47875875427174    8.25239651350187
P         1.64433927589441    2.95484012204155    7.50084172341443
C         2.54797403003569    4.33516472372197    8.26946152925238
C         2.20043927581646    5.59955528858665    7.79794228935171
H         1.37526933605973    5.69670356281128    7.10092755305719
C         2.90787061891673    6.71475419800900    8.19984377282705
H         2.63520837264493    7.69069378136557    7.82429936247554
C         3.97764744497648    6.57413564240952    9.07003697802212
H         4.53636225402813    7.44426323018835    9.38294937847159
C         4.34533853105569    5.31690172632604    9.51856797872942
H         5.19698697553969    5.20487598125255   10.17399699017537
C         3.64147482378233    4.19779519578316    9.11170674551883
H         3.96084325177135    3.21340315981223    9.41641084209702
C        -0.06184624077615    3.29697027380694    8.05752067596330
C        -1.10831688932595    2.67113918486928    7.38606660030509
H        -0.88812836564307    2.00102857965440    6.56715664583704
C        -2.41818976777661    2.91896790261016    7.75355668249132
H        -3.22313730245673    2.43277119293939    7.22255369656875
C        -2.69523794336849    3.79053951884881    8.79401172742099
H        -3.71794861146105    3.98496069270093    9.08320665766698
C        -1.65712514785101    4.42035418890179    9.46145920874784
H        -1.86923000642209    5.10451447454481   10.27070314985997
C        -0.34503255601371    4.18263011323909    9.09370677929821
H         0.45646754056642    4.69318862244619    9.61035947512579
C         1.69318267323595    0.80953797968429    9.47378258053558
H         2.35903245563406   -0.05740257726005    9.59567118810266
C         0.26213389438365    0.28273398177952    9.35086681333347
H         0.12159307088912   -0.20336160799358    8.38808775329007
H         0.06822145718588   -0.44243897457321   10.13844861045667
H        -0.45530898044754    1.09383036557836    9.43939216913528
C         1.81791152014260    1.71348057353770   10.69581806581488
H         1.26587152490436    2.63582313483858   10.53237523629200
H         1.40349040178124    1.20867453980757   11.56571426527700
H         2.85491299726603    1.96222171345894   10.90637166810689
C         2.33182397539294   -1.07697996234344    7.01154986509159
C         2.95521100481161   -2.04333374425100    7.79628741604785
H         3.81592615771077   -1.78398385157939    8.39809446158313
C         2.48131874226507   -3.34242353672532    7.79824462609952
H         2.96563684818162   -4.08808307023586    8.41260322165695
C         1.39574825348086   -3.69060568709576    7.01041369152471
H         1.03433511189007   -4.70884816235065    7.01164482250677
C         0.78238102524780   -2.73512261822237    6.21751365960115
H        -0.05749780544492   -3.00268283371692    5.59342916870469
C         1.24694041105336   -1.43232944308228    6.21658054429933
H         0.77507954544520   -0.68470991087227    5.59398416604491
C         4.65725710280586    0.39182846413849    7.46392322016627
C         5.50442274994908   -0.02476027485906    6.44107591998107
H         5.09223385987922   -0.16774803577761    5.44784634397084
C         6.84995949075350   -0.21545798320796    6.67933976330273
H         7.50287353120911   -0.52367717353376    5.87541620811060
C         7.36010441801875    0.00637829979286    7.94925877242310
H         8.41401950299993   -0.13420126614883    8.14016802458517
C         6.52259038641369    0.42066184268224    8.97063028137151
H         6.92330682080397    0.59987790919719    9.95840679508454
C         5.17326449822871    0.61666041814044    8.73177420681972
H         4.52569160382219    0.94958343447942    9.52987322529479

