54
CSD_code = HUWLOC | q = 0 | S = 0 | Stoichiometry = C22H20ClN2O7ReS | MND = 6
Re        5.74767646296480   -0.23863767215107   13.47827078717447
Cl        5.55519390344632    0.90523726460053   11.40198084101296
C         7.68191639281771   -0.32139500592973   13.24618361365244
O         8.80716187017980   -0.28397592387844   13.04297671622967
C         5.76920398057870   -1.02342116283493   15.25430131292734
O         5.75983668352351   -1.46173620938891   16.31679099007302
C         5.55205225250415   -1.94723371118879   12.56080556155487
O         5.38492845731701   -2.89733466240680   11.94522174604582
N         3.65158411737282    0.21879424613799   13.52396536159419
C         3.40222973421366    1.53257540392097   13.69384604106192
C         2.12336204528699    2.09939249492144   13.52314789538804
C         1.07540029503939    1.23902865882450   13.15717742580174
H         0.08236504043830    1.63545912650612   13.00582845190105
C         1.34492934411729   -0.09861764013770   12.99393930986452
H         0.56992623224254   -0.79257135386020   12.71013337528515
C         2.64479288727632   -0.56744061253709   13.18795013499485
H         2.87031890591345   -1.61802519518814   13.06079497642074
C         1.94187291293045    3.49443820457356   13.71462020313969
H         0.94343068811563    3.87314355888245   13.56636452425954
N         5.70624649611197    1.79168049742753   14.19342874063487
C         4.49938981395506    2.37868521144404   14.05322621124994
C         4.29798370851609    3.76271259475017   14.23648129120908
C         5.41597948183729    4.53848091079075   14.57091785909637
H         5.30595255087816    5.60331777092668   14.70593611496238
C         6.63790727719274    3.92316996869364   14.71440309123999
H         7.51917863664322    4.49015748616841   14.96726648001510
C         6.73850549821852    2.54744755002793   14.51860852359065
H         7.69194959088665    2.04692035068931   14.62706490011506
C         2.97920761731603    4.30834957259730   14.05692004946421
S         2.83396560703338    6.04954007025367   14.30132423623687
C         1.10777805579917    6.43603205589040   13.90777463941468
H         1.09914024690926    7.50779325345005   13.70741056412903
H         0.81896294186801    5.90571601365639   13.00031148176513
C         0.17293266755366    6.11490789625421   15.07093921179445
H         0.32833067980951    5.10071674364930   15.44509524510542
H         0.33546838799206    6.83322215220235   15.88126942132149
O        -1.18988711643080    6.15864582643825   14.65731055405148
C        -1.72041370532847    7.38230396651158   14.47368479526765
O        -1.10172365015362    8.39869669217993   14.62373922872407
C        -3.18204728006226    7.26107429252782   14.07807617937291
H        -3.27343796114113    6.49779594624498   13.30115148257806
H        -3.73824207383932    6.93259320439305   14.96709006395270
O        -3.71473451925464    8.44464065573668   13.54551753014847
C        -4.00083844743266    9.45267578082350   14.49395940205782
H        -4.16389391886803   10.35439801262999   13.90075273076894
H        -3.15301531426439    9.60965984217115   15.16713816444028
C        -5.25802551348621    9.16502012439882   15.31954049702251
H        -5.61540721441420   10.10489721338536   15.76629056202459
H        -6.04796770512973    8.76960886846135   14.66313687724383
O        -4.96224189253958    8.23427283899281   16.34076590211898
C        -6.04748256939900    8.00288624011616   17.20221063311332
H        -6.35657423087097    8.92722466403874   17.70483517981928
H        -5.70990348114425    7.28147819305294   17.94342830844703
H        -6.90762487106287    7.59439773012429   16.65749457912126

