53
CSD_code = HUWQEX | q = 0 | S = 0 | Stoichiometry = C24H22FN3NiO2 | MND = 4
Ni       -8.40444463342803   -5.01338352147959  -12.90725147506727
F        -7.45390916284871   -4.27344132757595  -14.19056205597190
O        -9.54609559153235   -8.37012860716337  -14.90363500021693
O        -7.85599871882141   -2.15517989542399  -10.06371995748851
N        -8.81320469819725   -6.40564382566605  -14.11822481470580
N        -9.45030900175379   -5.81588238168515  -11.51047461768320
N        -7.90221789549508   -3.56533059531025  -11.80216861464723
C        -8.56904136295997   -6.33035831666455  -15.55340906903139
H        -7.51024923416022   -6.11870383227409  -15.73485773971273
C        -8.96354398761822   -7.74599042112048  -16.03909971290775
H        -9.70580203816870   -7.72392313342725  -16.84132335051287
H        -8.10075439988397   -8.33905107988165  -16.35846483232356
C        -9.41112665830530   -7.52790253568701  -13.86037699783524
C        -9.96148368730485   -7.90724143704309  -12.61854599316809
H       -10.41645603888829   -8.88062276460560  -12.55381433639269
C        -9.99638934064904   -7.05586478761970  -11.55599682753859
C       -10.69019999893456   -7.41009278415443  -10.26365555910927
H       -10.12886832737215   -8.19099955621767   -9.74709990594361
H       -11.69458620939681   -7.78841301919801  -10.44959334243304
C       -10.67198228225456   -6.09294988905509   -9.49464014492673
H       -11.66293365991141   -5.63773392717064   -9.44354124026486
H       -10.29702540201944   -6.19140492467655   -8.47676900765177
C        -9.75858422127682   -5.22824036748651  -10.32825222041637
C        -9.30964749185277   -4.01743688328666   -9.89538713391554
H        -9.61784149726584   -3.63023110883627   -8.93954348091301
C        -8.36831222038760   -3.26592517107222  -10.62906211903594
C        -6.90010632198793   -1.61442941199779  -10.96490316616521
H        -5.94880848629559   -1.50576048650987  -10.43710589887106
H        -7.24814738437909   -0.62986901062226  -11.29250110011691
C        -6.82382910965133   -2.63852378305147  -12.12308172621101
H        -7.02092302014441   -2.16994334007506  -13.09285769486397
C        -5.47137561831378   -3.32034299098005  -12.19702197334449
C        -4.33841413661010   -2.53391132727799  -12.37111776799833
H        -4.44146265355136   -1.46190531122178  -12.46519713506787
C        -3.08476544096913   -3.11345627548081  -12.43726046179137
H        -2.21233282167814   -2.49152006935592  -12.57517590797110
C        -2.94842006517750   -4.48772921963825  -12.33509237581613
H        -1.96948083728439   -4.94106346541531  -12.38931434977994
C        -4.07358729790144   -5.27686947774936  -12.17470243411583
H        -3.97530633059431   -6.35045518469382  -12.10609515652904
C        -5.32808890617642   -4.69681312811162  -12.10317152797582
H        -6.21007412511843   -5.33175361250502  -11.99681298892133
C        -9.38820294983576   -5.24538647917218  -16.22571776729585
C        -9.35782256519512   -5.15038474012243  -17.61238123909448
H        -8.74311013532258   -5.83362104583086  -18.18156139090303
C       -10.09731166385066   -4.18241123995277  -18.26639380762973
H       -10.06358071900296   -4.11811576290545  -19.34421467588925
C       -10.87345406734914   -3.29365595602167  -17.54178386208625
H       -11.44954342721665   -2.53607477623624  -18.05251551967859
C       -10.89653132692779   -3.37384218743628  -16.16045656118307
H       -11.49028354963911   -2.67587223584588  -15.58857739213019
C       -10.16017244594360   -4.34583814144859  -15.50560879477058
H       -10.17015683318966   -4.38647524655946  -14.41480777398096

