51
CSD_code = HUWXUS | q = 1 | S = 0 | Stoichiometry = C26H20CuN2S2(1+) | MND = 4
Cu        6.26672111952845   14.04502013418772    5.76293024661167
S         7.99339876750797   12.63267203829260    5.06327590061553
S         4.43879207927205   14.70983154869474    4.38246798183644
N         5.50000112704012   12.39078897634239    6.74361271082467
C         4.45859791283855   12.41907223574771    7.54545801397490
H         4.15903281463395   13.39272546277660    7.90794598819250
C         3.75682536053044   11.27076507790898    7.92953870194335
H         2.91673777562356   11.35869344868770    8.59867963775743
C         4.15518613684330   10.05531039372969    7.43855641420190
H         3.63569546195119    9.14618529292460    7.70171279765887
C         5.26642663191029    9.98582551115519    6.57269769904971
C         5.93396007354713   11.20058528749620    6.25707364977529
C         5.72658945207130    8.77366717859995    6.01798675058832
H         5.20690921292191    7.86096323845530    6.26626965870529
C         6.81145721685510    8.75876491490168    5.18521435172729
H         7.16373764134117    7.83235886156743    4.75990654094564
C         7.49282817998463    9.94754180739132    4.89065978338236
H         8.36537386682912    9.92196875798363    4.25639525671522
C         7.06640228045562   11.14382542235244    5.40856264937090
C         7.60862893293290   12.89342015808480    3.26446949324625
H         8.35220456475056   12.33793891940199    2.69315689839333
H         6.62001429023331   12.47985960594103    3.08608556221208
C         7.71714352584936   14.36135253628317    2.99776370793239
C         8.99128364755744   14.92211145444340    3.05947781984961
H         9.83058571591879   14.27590892215558    3.26970531782700
C         9.19465808508599   16.27444602223398    2.87178036199021
H        10.19007813333685   16.68511156351849    2.93335715480212
C         8.11428302403728   17.09427609032867    2.59077674109272
H         8.25719291203615   18.15097190675683    2.42658132328622
C         6.84739367319600   16.55070118651695    2.51558383789260
H         6.00799812798984   17.19009771423049    2.28170302778385
C         6.62254361447631   15.19055747161332    2.72864264158610
C         5.21225990999943   14.71096310233073    2.69230212264230
H         5.10052540290491   13.68578351667584    2.34644393906079
H         4.58981128544693   15.36285911734607    2.08111866999833
C         4.68325764376577   16.44018074965765    4.76061937282303
C         3.71760604451723   17.33290108817391    4.37228178712035
H         2.81089107843540   16.96567235951167    3.91627493624576
C         3.90480856586750   18.71102904675808    4.54612554121837
H         3.12874225593874   19.39147372424816    4.23312880068362
C         5.07114455903474   19.18308765251786    5.08195273882391
H         5.24136463012212   20.24339698318524    5.18990701039076
C         6.07859661467131   18.29084790671178    5.50267953335785
C         5.87701894822727   16.88892712563729    5.37441995524752
C         7.30363568647122   18.72942998762312    6.04630312156959
H         7.48414777405302   19.78910148562467    6.14768433403838
C         8.23861978405494   17.80767538875439    6.43678044676903
H         9.18887840977487   18.10840198183175    6.84616116433114
C         7.93255049698410   16.44706263477196    6.32612502010854
H         8.63165155042408   15.69510098343649    6.66522537847864
N         6.80090800020930   16.00568602448620    5.82473750532293

