72
CSD_code = HUWYII | q = 0 | S = 0 | Stoichiometry = C33H34P2PtSe2 | MND = 4
Pt        9.16742876504973    7.93100505124039    2.03073942665233
Se        8.50804468640605    9.10030583166472    0.10010879001353
Se        7.55570514978079    6.27752884564713    1.57724259515309
P        10.76094265283886    9.43313649538862    2.85083669748126
P        10.05054534584938    7.07807352191296    4.01932641388099
C         7.09338901490863    8.02627027434228   -0.62548732531018
C         6.71192589174886    6.89499790766161   -0.02820720325479
C         5.54405743458699    6.07012346546776   -0.47469150309608
H         5.42435697076500    6.15108903412496   -1.55621162499728
H         5.72694983362033    5.01903537772187   -0.23085167641322
C         4.26059272246138    6.52206776496965    0.23209610731568
H         4.31947803873818    6.21241520591659    1.27932292342733
H         3.40954859673625    6.00921512151711   -0.22299858948308
C         4.03085459471925    8.03298487727749    0.19674403180173
H         3.08747118206197    8.23185853238051    0.71152300824469
H         4.81843941054306    8.52522095916792    0.76920317445156
C         3.97818235156146    8.63829925720916   -1.21323526544575
H         3.12969555695276    9.32529254652923   -1.27006017624076
H         3.79846139427116    7.85114949643191   -1.94825424260543
C         5.22574422553264    9.43006394532513   -1.61119371173456
H         4.99834114665841    9.98574779373005   -2.52549420669759
H         5.45670623022084   10.16002057190462   -0.83106984633461
C         6.47833274614696    8.58802957516687   -1.87626893528665
H         7.22413838746113    9.23236422928567   -2.35411329943684
H         6.23755199031426    7.78227734415189   -2.57432364717781
C        11.53513109354303    8.19413978295173    3.99767829535142
H        12.35082732568908    7.68360488919391    3.47335469530489
H        11.87329316833201    8.58098903428979    4.96226944478897
C        12.09151996472440   10.47092058790240    2.18033002513098
C        11.75867822022757   11.25109312906777    1.07620385022529
H        10.75565321459052   11.18562650353531    0.67006768914074
C        12.70496265147415   12.08017686448648    0.50583963760532
H        12.44736802402477   12.68455332070567   -0.35080432844928
C        13.98744717212858   12.12627975002493    1.03048711278361
H        14.73024714072568   12.77033758359582    0.58368846394743
C        14.32380411380721   11.34069447005455    2.12079746367164
H        15.32686704520788   11.37325727521758    2.52121041432885
C        13.38053390816003   10.50911254945157    2.69791196999643
H        13.64965210937407    9.89090525159474    3.54346355773034
C         9.94460081045837   10.54308771458154    4.04069673516401
C         8.56254960863304   10.66592044735163    3.97335696986244
H         8.02508043048103   10.14469991812788    3.18286606216087
C         7.88904425468300   11.43625104898294    4.90291458782761
H         6.81463053576752   11.52731560351083    4.85237541117585
C         8.59721745960583   12.08648610243932    5.89931418170182
H         8.07427298482138   12.68314568692711    6.63192418908274
C         9.97854936958276   11.98330675296163    5.95553017376287
H        10.52745379926212   12.50188151386062    6.72821015779654
C        10.65638406691844   11.21801294208390    5.02551331211792
H        11.73542421107386   11.14591123523644    5.05946682299200
C         9.12202339674276    7.65560414723833    5.47572831911891
C         7.75975907368793    7.88483076918055    5.32541307850211
H         7.29618143485673    7.69302657600891    4.36263461202051
C         7.01529474591422    8.35793733172324    6.38985584936014
H         5.95706250176856    8.53611590296877    6.27161088716527
C         7.63141647410808    8.60685920127464    7.60463739301797
H         7.05543790365808    8.98737480166343    8.43508898262694
C         8.98621115736073    8.36071520528787    7.76247467038017
H         9.46136055922178    8.54471676558748    8.71511421674060
C         9.73216076410296    7.87644197826928    6.70469439227076
H        10.78474631725893    7.66575035882379    6.83626183505890
C        10.61245842229152    5.43807637773872    4.56414578388469
C         9.76001838525847    4.37243391901834    4.29012405135693
H         8.83584515688607    4.56152677650642    3.75555062061559
C        10.10530019364383    3.09385290333695    4.68351025811612
H         9.44556799197358    2.26658019176432    4.46943682575495
C        11.30409716495641    2.87541578645208    5.34457008587719
H        11.57872841241702    1.87600459241696    5.64785830474142
C        12.15718508495446    3.93421187459462    5.61015728308959
H        13.09346819924479    3.75895133253675    6.12019535884100
C        11.81662912112921    5.21745168994574    5.22127078164678
H        12.48807053535254    6.04033853344768    5.42471759973348

