75
CSD_code = HUXBUY | q = 0 | S = 0 | Stoichiometry = C28H40MoO4P2 | MND = 6
Mo        3.92424498386076    4.10950250384088    1.63981903028289
P         5.98304464904373    5.31926333353911    1.11785847763861
P         2.78423943607988    6.20194508260995    2.18908653701108
O         2.94163301474598    4.03829872075894   -1.28441280303769
O         4.82573021086193    1.25322774117044    0.95403705325365
O         4.63312686184838    3.22379674792700    4.51221427078258
O         1.58751410254796    2.14888370269351    2.01045000833874
C         3.33948716981842    4.22681117546557   -0.22918956513511
C         4.61259432217962    2.35566794847838    1.18460852056783
C         4.41697177180575    3.67834634443608    3.48397517528900
C         2.37808052116513    2.97367546544102    1.91666742127729
C         5.78814511091598    6.85740497194037    0.08955824669526
H         5.67150532615610    7.67523714675435    0.80487651983898
H         6.69904249137649    7.03305897793152   -0.48543013358990
C         4.60368588112384    6.79835906601278   -0.82482094275172
C         4.79125446723606    6.43297891348819   -2.15405145785783
H         5.78412396544599    6.18198510004548   -2.49624200342153
C         3.73837545664357    6.38849140241299   -3.04735626303807
H         3.91000101937385    6.08858191325291   -4.07006395451469
C         2.46853481426931    6.73600188541787   -2.62305597176919
H         1.63643129354686    6.71064596293040   -3.31031060323207
C         2.27070737829017    7.12345645089078   -1.31187413425397
H         1.28173771567922    7.41545976546433   -0.99149658128007
C         3.31675305025570    7.15157367950748   -0.39509873962820
C         3.04759753318593    7.61174397859852    1.00413326523890
H         2.18038647372271    8.27415899371183    1.02208461440648
H         3.90797224293714    8.16336247191195    1.39087402115250
C         7.38437048486056    5.86208427731773    2.27823774589381
C         7.31711001230503    5.07569362550150    3.58132217846212
H         8.22455151684504    5.21702385999659    4.16630328075588
H         7.17993091322344    4.01115735935290    3.40897455051350
H         6.47339034289508    5.43147836920673    4.17315051969982
C         7.50973625634268    7.34150023020457    2.62523144217454
H         6.61594192677913    7.69316893703982    3.13999577420110
H         7.67700415906218    7.96014861924811    1.74652179631537
H         8.35673774099457    7.48385582851890    3.29581987386915
C         8.45050245718899    5.36638549205541    1.26798189748708
H         8.77382753022096    6.22670925132289    0.67142842358228
C         9.70358375407499    4.71977669875799    1.83755841100350
H        10.24788952696437    5.44145189399474    2.44372992069251
H        10.35677661189268    4.40048929747282    1.02787851616670
H         9.47016643265608    3.85806831598907    2.45437105037368
C         7.52477749881415    4.48951503113010    0.38374172031350
C         7.55101524864804    3.00409837748896    0.72056942094024
H         6.89287830996290    2.47035272754933    0.03779165011135
H         7.22090107134661    2.80251962345960    1.73772166807589
H         8.55589213274393    2.60407937156293    0.59648493957140
C         7.76889277408572    4.61851999317977   -1.11564418965101
H         8.65675380449630    4.04891019197371   -1.38893709034568
H         7.93392027446716    5.64758753899138   -1.42715308651044
H         6.92232445153653    4.21239756752363   -1.66772527193466
C         0.93282784190007    6.30599079306915    2.59574230081981
C         0.41917955265315    4.97095111309330    3.11970817776751
H        -0.51946488483832    5.10826667009619    3.65381222452855
H         1.12926654371744    4.48483802748513    3.78590218752416
H         0.23061886551639    4.30500087264239    2.28004950318776
C        -0.02218386878814    6.76010618354830    1.49753498754048
H         0.05649209045072    6.09686349897722    0.63709166157650
H         0.16459475607884    7.78199691029923    1.17491338710048
H        -1.04650728712513    6.71686163167694    1.86671309786032
C         1.20639595475121    7.36610460186218    3.69523949045477
H         1.04619404420927    8.35771200369452    3.25749643550197
C         0.37386773776974    7.29762424524173    4.96605483665666
H         0.48493804014577    6.34424740136879    5.47227473784885
H        -0.67794061075790    7.44421305497605    4.72853225132763
H         0.67762169956608    8.08886889066112    5.64885014354114
C         2.73499097463347    7.14923367268423    3.83434953424082
C         3.15427672073777    6.23371958595381    4.97756449383861
H         4.22939473312836    6.06052616642464    4.92410886640467
H         2.65669958190461    5.26837500559037    4.93100625162356
H         2.93248196041858    6.69063392615393    5.94074111302259
C         3.52886254263852    8.44569632590462    3.95252494034491
H         3.39369551545676    8.86077641056224    4.95095210093191
H         3.20403881521993    9.19701157766906    3.23638851341405
H         4.59336218410646    8.25998950487617    3.81155361291101

