75
CSD_code = HUXBIM | q = 0 | S = 0 | Stoichiometry = C28H40MoO4P2 | MND = 6
Mo        5.64825014990130    2.45261372238506    3.99972056240766
P         4.11740671064664    3.83463814354082    2.67653263182990
P         7.43098521407347    2.07841743037579    2.36028544449026
O         3.72502395722995    2.48629546710582    6.40450451464026
O         4.18934726322162   -0.15213045127384    3.17824705773640
O         7.09378140607409    0.70919268474086    6.08632450818431
O         7.10042472132787    5.02991122627961    4.93464730358764
C         4.38570859434739    2.55084953453503    5.46885782345050
C         4.73105511364977    0.82438701891607    3.42713240415049
C         6.64308917172123    1.35840134463180    5.25476683833539
C         6.56675386823073    4.08465686820137    4.57760923237161
C         4.55267810684065    4.22760003333749    0.91181019159822
H         4.56678075870068    3.24305724612321    0.42837918523453
H         3.76276284909526    4.82382399296335    0.45426541998055
C         5.86247483972809    4.93822151506235    0.73764026549245
C         5.82885988751043    6.32307167870969    0.58772764978685
H         4.87603568344333    6.82787416619489    0.60394420777247
C         6.97057334534207    7.07033759004276    0.38004960012261
H         6.90565898646568    8.14381296828581    0.28433742637592
C         8.18638895815024    6.42392870738749    0.25996601453668
H         9.09040979255940    6.98221281780415    0.06818418519224
C         8.22857113984747    5.04739709538404    0.35180064624273
H         9.16810569126124    4.54611839797348    0.18166930460714
C         7.09372139048788    4.28382391510470    0.61747118773839
C         7.25357478943439    2.79246472503300    0.65222139933159
H         8.10996941952022    2.51330391094598    0.03786333801783
H         6.36431951557757    2.28715398234871    0.25590890066433
C         2.26940028743384    3.39783185375660    2.62346578922075
C         1.99838574507318    4.48665573239405    3.69309275853582
H         2.08612226687873    4.00840288721033    4.67465649020171
C         3.27619059012323    5.34184834887943    3.47830649919982
C         1.89617224940477    2.00282290010761    3.10580209677432
H         0.82242986832084    1.95535705006938    3.28756603146687
H         2.40367134458592    1.75564405267613    4.03658515455481
H         2.14476123607815    1.25145380293548    2.35842236514435
C         1.56969048426291    3.62603655168226    1.28554083620254
H         1.96807528580599    2.94805692782958    0.53220628363690
H         1.66350566505723    4.64434649956621    0.92227388640425
H         0.50756868823982    3.41269270503027    1.39614742170385
C         0.65202496698733    5.19196432609211    3.65124519196148
H         0.59513647464284    5.93022350188233    4.44847621191995
H        -0.14552442479039    4.46869796280556    3.80812599230879
H         0.47857818197964    5.69298996412993    2.70371659138454
C         3.06331895952047    6.57920015413062    2.61453868208744
H         2.36267699966825    7.24656442869690    3.11450715508527
H         2.66354280120922    6.35384474822310    1.63033305432801
H         4.00401875840280    7.11263657902804    2.50344897221790
C         3.90641828499297    5.80665469252965    4.78554778526512
H         4.82818993558862    6.35410186065010    4.59590746371308
H         4.13061165355152    4.96891532189647    5.44313737993162
H         3.21799667083495    6.47137763684898    5.30735507728713
C         9.25109614197515    2.17767592963227    2.90724062217109
C         9.28390632294386    0.62847911205501    3.00259153090056
H         8.98762240248383    0.35716717983761    4.02164321688374
C         8.08213080076227    0.31689160599483    2.07425361723670
C         9.47914259521094    2.86124028240296    4.24991579765968
H        10.48319944750211    2.63596040643210    4.60929860346888
H         8.76768305564032    2.52057797939355    4.99975984497489
H         9.38845233155703    3.94179571512592    4.15229921832534
C        10.25702050868493    2.76553820687875    1.92486740812975
H        10.16066455156474    3.84819903577208    1.90835612622151
H        10.14670504346626    2.38293452653639    0.91460408433237
H        11.26498521970111    2.52915402090619    2.26292640807120
C        10.59847075906532   -0.07726610742987    2.70978254139349
H        10.46638905362770   -1.15282660917799    2.80704055598700
H        11.35409541822040    0.23293276649890    3.42855724803180
H        10.96573435178001    0.13371846255429    1.71003975400225
C         8.45695528687742   -0.02842815747870    0.63481390602890
H         8.88137656025637   -1.03089136585705    0.60616412816825
H         9.18927223787629    0.65004539982697    0.20920497204444
H         7.56929181996551   -0.02523456608566    0.00392082264539
C         7.21317476555295   -0.81401940093712    2.60712882837959
H         6.34862690271019   -0.97759781894736    1.96628016008990
H         6.86812356029461   -0.60683499825169    3.61857273933951
H         7.79250656403704   -1.73696782687745    2.63396545109822

