77
CSD_code = HUXCIN | q = 0 | S = 0 | Stoichiometry = C28H44Cl2P2Pt | MND = 4
C         4.95065943746796    4.86464577415811   12.27565184653840
H         5.94072150810545    5.29865412096327   12.37973600858066
H         4.76189484833904    4.24595253802309   13.14548848795645
H         4.22847389726741    5.67939754024232   12.27381107577685
C         5.30121252798257    5.03546616378341    9.84688845841169
H         4.64819552967119    5.90463794328508    9.78928571511062
H         5.31914281266295    4.54620242513767    8.87624777073006
H         6.31046375845462    5.38247407492829   10.05388891546155
C         4.84282685372486    4.08235945715354   10.95925214858610
C         5.71768012554427    2.80344871213593   10.92322326894385
H         6.10950318506487    2.69940722148168    9.89810274329311
C         6.94105370597739    2.82722167142160   11.83375035594013
H         6.66865952948022    2.81074654897235   12.88575662375450
H         7.54666657773479    3.70926425518599   11.64297003093768
H         7.54799088996015    1.95090267649124   11.61978040510832
C         4.85974162531471    1.54971699466673   11.18092993327530
H         5.51595757422233    0.70221902998367   11.39807796936952
C         3.86088356019244    1.76669677056033   12.31056666109751
H         3.35505678942270    0.83559500533509   12.57209327496384
H         4.42114417241655    2.07077197562147   13.19661293480188
C         2.84196488069861    2.84206677213734   11.92000734652875
H         1.89983093626800    2.37676308502647   11.61954663864937
H         2.62180194322608    3.48631378766628   12.77121092324113
C         3.36741637359396    3.67303893817498   10.74342479457629
H         2.76646846521389    4.58704692220474   10.66221717274620
C         3.17448081093485    2.87093475650364    9.45443085750700
H         3.56771764901288    3.42552473213913    8.60163267446322
H         2.10875695201624    2.70271425178987    9.27591622024658
C         2.73326458477126   -0.02851033877796    9.83654833527728
H         2.73187660062489   -0.30968267415526   10.89066376237765
H         1.75442197675649    0.38708195793438    9.58710736723041
C         3.05202952766316   -1.23858841780864    9.00264135420477
C         3.66833927616507   -2.32489378916755    9.61552900722132
H         3.90723331674138   -2.26677127158758   10.66781411531839
C         3.99159892125703   -3.46520012209827    8.90482730942244
H         4.48596320918774   -4.28698277088396    9.39947583430250
C         3.68161130620836   -3.54160448767257    7.55920551402200
H         3.92497663463165   -4.42657886035421    6.99143592988447
C         3.07421787439723   -2.46803433630021    6.93620950848041
H         2.83804692980725   -2.53065982278869    5.88353953730770
C         2.76426855371241   -1.30395270762881    7.63264256868068
C         2.21556711787582   -0.13270259398219    6.86682976201631
H         1.64682989970236    0.54860567057886    7.50203586768988
H         1.58292554312985   -0.46668684790602    6.04202384983379
C         3.97945720752543    0.12409515776155    4.52739523173793
H         5.02991876978338   -0.16168411788999    4.45002488338016
H         3.38228753812524   -0.78082682894391    4.39018175250811
C         3.59563733819499    1.16472593643748    3.47219705413012
H         3.76250233291138    0.71112264310739    2.48875245822853
C         4.45155811459096    2.44999409471660    3.55439944480275
C         5.92169800585075    2.12461290129035    3.26481257983668
H         6.02583929328481    1.66537918547677    2.28410041178691
H         6.33927995803312    1.45225547840172    4.00914250787102
H         6.51114686431004    3.03872786596420    3.27507603579150
C         3.98365898871863    3.42339042104559    2.46270142845466
H         4.67740605001638    4.25406213006230    2.37017517706098
H         2.99610275994534    3.82780546496050    2.65826805751605
H         3.95687090404777    2.90684066692033    1.50526088046691
C         4.33606530113444    3.03468961818367    4.98651987803768
H         5.21868862275534    2.68343519419102    5.54932326106373
C         4.35678139422378    4.55931470350217    5.06321086565491
H         3.47228437176120    5.00087770872131    4.61196606409178
H         5.23623407918252    4.95528201927688    4.56334859970354
H         4.39768024584603    4.87350850744571    6.10477655280268
C         2.10354774375669    1.48474344284907    3.61556317171935
H         1.72921327156340    1.95979915845832    2.70906379065914
H         1.55606854483025    0.54626689931111    3.72783802119887
C         1.86671036922919    2.38983794892050    4.82976486326864
H         1.01519287639069    2.03540892398357    5.41443690163485
H         1.62756305061603    3.40603788652610    4.50791582232200
C         3.11012343176289    2.44913096538704    5.70959873761015
H         2.89311464614296    3.04332606834828    6.60274188287701
P         4.05714831766847    1.24737762257520    9.55213297353659
P         3.70144282108282    0.77778420600532    6.22002574162131
Cl        6.97481573662546    0.03075320755834    9.31981581953441
Cl        6.74874666335290   -0.22707420230796    6.16440685907741
Pt        5.34917619414505    0.55847638915357    7.79683141011703

