52
CSD_code = HUXCIO | q = 0 | S = 0 | Stoichiometry = C19H28ClN3Pd | MND = 4
C         5.99139275928959    6.68022022455044   13.57638142701369
H         5.61634425610906    6.62193939575953   14.61495625209632
H         5.45861797609469    7.48052183235570   13.06538687246089
H         7.04841862903421    6.93265513310849   13.61933179090001
Cl        7.02441703158329    5.88791183085153   17.07831559779991
N         1.64866912162897    5.89170559096974   16.85772516145891
Pd        4.81645344844042    5.82266048316742   16.79523482472793
C         5.79892359571875    5.35237152800931   12.83043965238831
H         4.73085216620595    5.10246119105806   12.85297241893138
N         2.65405800811507    4.55122841301326   15.49928091323398
C         6.19434996386891    5.51558167203497   11.36358940511701
H         7.19570403060096    5.92810537922469   11.27381751068087
H         5.50593655694842    6.20219976994168   10.87442081659560
H         6.15628863275093    4.56151850407478   10.84135299877860
N         4.86990465785829    4.22500689284791   15.27486895301402
C         6.57092922200256    4.26405370844750   13.54792516688614
C         7.80580598970264    3.81239979678766   13.11047809576488
H         8.22193268079341    4.18771523983984   12.18970664590288
C         8.52527659075010    2.88568988980229   13.84375983382989
H         9.47920818761074    2.53744141810819   13.47602343857504
C         8.04837577133433    2.43067397626364   15.05824323791610
H         8.64090093649705    1.73809470021210   15.63394316612829
C         6.82942854193100    2.87182558328102   15.54813471500778
C         6.28770959476075    2.43957062764097   16.89227527706826
H         5.61896820975268    3.24363578369464   17.26100690813527
C         7.38821152767743    2.26635415701924   17.93611570958607
H         8.02193417808062    1.41081429064512   17.71437491129679
H         6.94223883624463    2.11071328146665   18.91639659930222
H         7.99817232786476    3.16518952399208   17.97412209171238
C         5.47091481437988    1.15267348215392   16.74568911874624
H         4.64850665569105    1.28732779160764   16.04518795844022
H         5.05871965680106    0.85458081966919   17.70754717751361
H         6.10467440797934    0.34774355899960   16.37727787749182
C         6.08029420987615    3.75313205970856   14.75915131473025
C         3.70637226864906    3.90304178267250   14.86951152628573
C         3.37896753229629    2.89177665952963   13.81294442732947
H         4.30191005624565    2.47384796792775   13.41690298775994
H         2.81815049748712    3.34995802993460   12.99860828529241
H         2.77640261196926    2.08620242786948   14.23264630192636
C         1.30129441196338    4.35617352137659   15.32127751720840
H         0.89334453996387    3.65140484696811   14.62809212728320
C         0.68121709670928    5.19905368978866   16.17367270950337
H        -0.36378231306604    5.35704214069686   16.34727199464939
C         1.35317342252957    6.88101218140733   17.85836532622040
H         2.07154516158027    6.79761981867692   18.67265206370383
H         0.34599180669727    6.71889598765380   18.24002509425761
H         1.41750789785702    7.88605138135303   17.43524195189864
C         2.87921895496635    5.51908969543655   16.45540396154986
C         4.66104731192102    7.39225026681141   18.10830463509041
H         3.97066181077521    8.16109881615581   17.73852388983556
H         5.64529683963950    7.84757909305566   18.23679354428098
H         4.32504691784065    7.03758416238064   19.09262781668693

