65
CSD_code = HUXCEK | q = 0 | S = 0 | Stoichiometry = C26H33Cl2N3Pd | MND = 4
C        -2.45333374766856   10.77181092119037    3.35117010395217
Cl        0.81969333504270    8.86403585885663    5.16430764477884
N        -1.63566180631885   10.82710844941258    5.76932953160209
Pd       -0.99441342658922    9.74055917428892    4.15625422249964
C        -4.00630126336579   12.38515176199541    3.59712458665050
H        -4.63881662611177   13.08638828162040    4.09987640110379
Cl       -0.67963800998145    8.37276634433293    2.42293785329390
N        -3.10838785131630   11.57009061241488    4.25450695656888
C        -3.88032419836094   12.10129365125346    2.28114054726858
H        -4.37978778203454   12.52364219412569    1.43322844313308
N        -2.92305338957510   11.12392796313475    2.14914153849131
C        -2.40411085616375   10.64790168874667    0.91319290948765
C        -3.19154173336664    9.82957811940582    0.10797835178001
C        -4.55059903724375    9.39349126014744    0.56617599238591
C        -2.66728178999590    9.39610316178677   -1.09926874277903
H        -3.26323064195739    8.75212651076750   -1.72948313223552
C        -1.38802427180918    9.75103401790923   -1.50040707958164
C        -0.82134978914207    9.24304536660846   -2.78951810256587
H        -1.61150519457527    8.96346798429034   -3.48193990956484
H        -0.21179892688715    8.36092538224862   -2.59448050530326
H        -0.18626805513621    9.99202986295090   -3.25727080950482
C        -0.62209352817800   10.55379826196242   -0.66649954561275
H         0.38340107816153   10.81440186259083   -0.96197868332398
C        -1.10564810909559   11.01009921266354    0.54862641183775
C        -0.24020150945707   11.83280933742092    1.45595370741784
H         0.63136688137351   12.19707005876401    0.91892862043763
H         0.11760029157807   11.20412512694287    2.29467781328035
H        -0.78267840415313   12.68607459859188    1.86640506448866
C        -2.68547243037535   11.53721551603911    5.56988900012682
C        -3.43848909652801   12.32919972422290    6.58977953292110
H        -2.98895367921224   12.18688400343935    7.56957362324825
H        -4.48146392626002   12.01505062383267    6.62483865639934
H        -3.41266888058791   13.38949087523172    6.33709606565044
C        -1.05930807400989   10.60316242806952    7.03015356073496
C        -1.64481316043274    9.68119440658256    7.91088867130647
C        -2.87597774097433    8.90430342941751    7.49116914006363
H        -3.52831710934881    9.56148421805830    6.90259821197965
C        -2.45287262275654    7.73060745592904    6.59589018027462
H        -1.97091306016506    8.08442087400844    5.66432260416915
H        -3.32124268335598    7.13310219878662    6.32405116548667
H        -1.74033583876733    7.09863383325846    7.12116656617369
C        -3.69894360062281    8.39162564278131    8.67313532138629
H        -3.18398699727527    7.58502072014425    9.18766471144402
H        -4.64986138726484    8.00295348807581    8.31422348558201
H        -3.90033578435264    9.19129211094824    9.38334998127646
C        -1.00630836510234    9.45053391496141    9.11959181607278
H        -1.41689552440184    8.73808198538999    9.81626896121213
C         0.16049176753893   10.11683136374186    9.44736839641950
H         0.63381075360840    9.92891361552817   10.39955857932747
C         0.73855327718412   10.99743691068367    8.55348794240062
H         1.66397011819218   11.48539390083730    8.81286690895440
C         0.15175441727789   11.24130802405358    7.32159411797100
C         0.77427614463872   12.16969056046131    6.30339751578968
H         0.39758123757043   11.87865590121168    5.30501473619362
C         0.35677636604337   13.61619330434433    6.58285862925520
H        -0.72640745829905   13.72346473778457    6.55772772177317
H         0.78735821391331   14.28379030894280    5.83959748139484
H         0.70701238909013   13.92322014301876    7.56641172090710
C         2.29495428588896   12.03989000276234    6.25665982206072
H         2.75978284231655   12.42090165279204    7.16241334099861
H         2.68535715395273   12.60523380451898    5.41296494713407
H         2.56328783674939   10.99469335445132    6.12737713500670
H        -4.48182297468283    8.95811966042368    1.56258342457408
H        -4.95542949128759    8.64580604802550   -0.10976910449122
H        -5.24685855559565   10.23144223079251    0.60732523884985

