77
CSD_code = HUXCEJ | q = 0 | S = 0 | Stoichiometry = C28H44Cl2P2Pd | MND = 4
C         2.90310174626700   12.30605818240190   17.58189624241910
H         3.47670006047822   12.15667405044783   16.66222450914937
C         3.88655932713191   12.52751518428376   18.74894355030609
H         4.23707156859641   13.57009027913497   18.65671623773531
C         5.13150232133301   11.66126965394356   18.58878309456053
H         5.63343839652497   11.95054761126110   17.66866425429754
H         4.88932544040122   10.60316450165385   18.53537818550302
H         5.82187629633842   11.82134127803797   19.41279794062779
C         3.15910563810711   12.39694868532301   20.11060694142332
C         3.39724347099539   11.04857270852528   20.80414520564209
H         3.18711005937932   10.20531382288514   20.15609371480373
H         2.75789510115910   10.97256774742575   21.68217405133097
H         4.42841142561629   10.96937075714136   21.13569353848463
C         3.67958960679992   13.47986114984399   21.06516216498554
H         3.13859581306281   13.45484132943550   22.00956117840778
H         3.58653463520030   14.47468035494496   20.63645702620428
H         4.73351425137535   13.31084326406060   21.27214749939435
C         1.64207627299826   12.57479814233624   19.87380846565959
H         1.14180438716094   12.58857995044875   20.85014787354206
C         1.06954160239258   11.41770321138558   19.04750218561341
H         0.06206935998918   11.69158178717388   18.72410395623562
H         0.97230924432551   10.52468665547697   19.66479617300334
C         1.96145076504670   11.13635180352890   17.83355460260572
H         2.57207180342306   10.24743121434433   18.00361555319299
H         1.35549701906563   10.92909599486927   16.94905368508647
C         1.31111490268626   13.89163797047020   19.16772814077089
H         1.67536463581079   14.73810250073089   19.75039624793842
H         0.22547937242411   13.99419430125321   19.08083318080973
C         0.56506243927498   17.30862313544107   18.11410122325217
H         0.08262740110341   16.36038336006533   18.38066676512048
C         1.65813278797614   17.62628345246834   19.14707640562010
H         2.37202516772164   16.78537270982688   19.11308823565017
C         1.06092369302069   17.64703322754375   20.55467517754456
H         0.51178128050222   16.72300911989428   20.73100795254271
H         0.37239138889513   18.47524401192646   20.68965218428770
H         1.83969304213646   17.71988942049040   21.30830259403541
C         2.65542187805590   19.89729867758477   19.87526758744318
H         3.23666138359018   20.74344594976556   19.51505168501356
H         3.21270572333255   19.43438984528782   20.68479580219764
H         1.72370547193634   20.28001729575916   20.27904053338359
C         3.85471220038819   18.50110087622514   18.26032227610341
H         4.35866972098186   19.34385947086198   17.79255004878737
H         3.85501550699646   17.66371490759972   17.54407304666575
H         4.44447254549531   18.19159667452945   19.12240898667070
C         2.44507281299208   18.90383637429690   18.72286676605059
C         1.67508524281999   19.62168932316931   17.58536198107731
H         2.11433985599377   20.61630136599729   17.45481385705970
C         0.20080156045652   19.78343961928886   17.96070554991673
H         0.11944796101755   20.27242993777367   18.93081890622464
H        -0.29122976086463   20.43336153365806   17.23464711121721
C        -0.48252790012866   18.41345473407925   17.99481249045815
H        -1.18212217654767   18.35626721370951   18.83103402341914
H        -1.06362882044523   18.25573890987992   17.08259858305149
C         1.76086856810813   18.88698604960025   16.24180412389917
H         2.74397444334140   18.99063950365038   15.77735743117239
H         1.01640557472182   19.29124357878967   15.54934174120266
C         0.15462383902039   16.55448417589652   15.27934867269652
H        -0.73276472708254   16.20309603257001   15.81355688284172
H        -0.12369122273123   17.39490564229989   14.63915258278553
C         0.79674711154641   15.46781402749705   14.45582563916304
C         1.28615306368813   15.79067875851729   13.19394238972855
H         1.12055494878781   16.78569470556351   12.80608727161973
C         2.00984201733860   14.87968365112121   12.44605575293516
H         2.40003277615285   15.16665215260209   11.48179176882702
C         2.25915184954563   13.61830005157657   12.95617129938428
H         2.84877023767623   12.90831370346384   12.39671146650096
C         1.76385845627709   13.27446018628152   14.20100456565133
H         1.95024987821043   12.28521271318472   14.59765618195854
C         1.02905990020898   14.17908901469489   14.96545297798517
C         0.58543570446308   13.74041990516206   16.33752811293329
H         0.25089506874207   12.70084828125288   16.31780308327109
H        -0.22591548228091   14.36259829657502   16.72285857796971
P         2.05554783915217   13.93840912303108   17.46995142959047
P         1.44830713356183   17.09713526858915   16.50548723800031
Cl        4.89990268291005   14.23584092575878   15.98627435059800
Cl        3.93258702421989   17.02493779268496   14.77082680614881
Pd        3.12980838366627   15.60175121973341   16.35768448066390

