68
CSD_code = HUXCOU | q = 0 | S = 0 | Stoichiometry = C27H36ClN3Pd | MND = 4
Pd        5.25076253972145    9.09781483545698    7.47055378035634
Cl        4.42944942108728    8.22674939703197    9.35755405131377
N         4.41910467739836    7.56094862431466    6.06660556586593
N         5.32748616774040    9.04085437736969    4.64192075895142
N         6.01436559125765   11.02086444489139    5.15843892080242
C         5.66873285281454    9.84257820600998    5.70591182143052
C         4.74888055397391    7.79905893791290    4.85977722571171
C         6.47125866175975   10.28142121892687    8.61641495407852
H         7.18394537644646   10.88597740302659    8.04745242150177
H         7.02571098150100    9.58397723786894    9.25607281425068
H         5.87920081343489   10.93764503511679    9.26146940463725
C         4.56209042632189    6.88942689739867    3.68444488343569
H         4.21116049359359    5.91985316393017    4.03133266733637
H         5.50126995174450    6.76446944343835    3.14660217903632
H         3.82465774500283    7.30051499345305    2.99459947446773
C         4.01375829670292    4.31003832418954    7.70213940288837
H         4.60376015936610    3.56226931381233    8.20758707508768
C         4.62404829013118    5.45569267309060    7.21457979767653
C         3.82569063947306    6.38703852052878    6.54038410900465
C         5.92846898259088   10.96170580400989    3.78654713899014
H         6.15852075050175   11.80350229535371    3.16610708392218
C         2.65230084506691    4.11988458910689    7.56425937553473
H         2.19245127400461    3.22317625834536    7.95283398931477
C         5.50506848486987    9.72374849427121    3.45561352264078
H         5.30637131548164    9.29341161277648    2.49653268703963
C         6.32544636568548   12.19948625575681    5.88686570712354
C         1.61929478081941    7.37250603416299    5.85716528788993
H         2.12253174903562    7.73307634874161    4.95024090758802
C         6.91970777257969   14.52416740515089    7.27993350791312
C         7.88960692659948   13.89288267259286    6.51680490026942
H         8.88698854485619   14.30587087091420    6.47273796882680
C         1.86676932846961    5.08757469298066    6.96298110863781
H         0.80051158799253    4.93861764773258    6.90898964125544
C         5.32699798406554   12.80698926345309    6.65489602046957
C         5.64864257308188   13.96750371332999    7.33987275054233
H         4.89191796262584   14.44817179768043    7.94235671801248
C         7.61300242428815   12.72801427175738    5.81607241851159
C         2.43497032005892    6.23738529228651    6.44021280281732
C         6.10421942865416    5.71643573963896    7.39924816548556
H         6.28236043517451    6.81265349094819    7.32256277700326
C         7.22506645171466   15.77777382019902    8.04000561896675
H         8.26118118538780   16.07592697509641    7.90380997786392
H         7.04259760457953   15.62627586350742    9.10271938850684
H         6.58121319752725   16.59013443606558    7.70519296296395
C         8.68447011040481   12.03442355154738    5.02850260990958
H         8.64593489392613   10.95900347848686    5.19571352217346
H         9.66489320772190   12.39720488371645    5.32467485327039
H         8.56588403401248   12.21615065020170    3.96019725328132
C         3.95442385082885   12.21571185441928    6.75696532245818
H         3.27362118837773   12.91557506223209    7.23346204553004
H         3.98852972568197   11.29441951371069    7.37045346177025
H         3.56113601822358   11.95622939781875    5.77349450649187
C         6.90820773382549    5.01283620482236    6.30241857934037
H         7.97044614129279    5.21462916707941    6.42430294897747
H         6.60456476612727    5.35244759027736    5.31344140410394
H         6.75290891733412    3.93654278932031    6.35607745599940
C         6.59229433701595    5.29759806117219    8.78536712132998
H         7.61865696002455    5.63062598417730    8.92763478488439
H         6.56566033616404    4.21828382849888    8.91514055585395
H         5.97026523127449    5.76531551044899    9.54470850875328
C         1.57634044089475    8.52525833299087    6.86907608432728
H         2.58804144207524    8.86255006456755    7.13375603667279
H         1.08939785371777    8.19787338752525    7.78450778326250
H         1.02588407629567    9.37080173637548    6.45970796851674
C         0.20040603593626    6.97004032626051    5.46140254705687
H         0.21094078123313    6.10355375139248    4.80302245160921
H        -0.28027053994029    7.79373551292008    4.93669779790735
H        -0.39727945808155    6.73982066652444    6.33947066071982

