58
CSD_code = HUXJIV | q = 0 | S = 0 | Stoichiometry = C19H34ClN2ORh | MND = 6
C        10.30252310299487    3.52998043198687    9.67844385175591
C        11.09468295008825    1.75869731534903   11.13945023104320
H        10.23336485739003    1.24828454864201   10.68997758514298
H        10.97443641062392    1.81373938766680   12.22884508125023
C        12.36208435526193    0.96672524441846   10.80340073344109
H        12.34539812501600   -0.00315050710448   11.30243890705514
H        12.41505166077338    0.82791429261123    9.71506875680654
C        13.58671987311457    2.89682511878421   10.64415336233383
H        13.60643971859755    2.77955918295385    9.55070630496053
H        14.51364290537519    3.36358480402926   10.98302771325095
C        12.38683438493006    3.78144289105986   11.02310068060499
H        12.39188153714887    3.94797496049018   12.10795354971586
H        12.50122328800769    4.72409860817859   10.49524061992924
C        10.27037128648707    5.85905989099432   10.46830730016561
H        10.65424608980746    5.33661922422271   11.34732648653569
C         8.87135263998830    6.34646597886321   10.88408883002707
H         8.47311335404726    7.09359356806218   10.20764309711655
H         8.93520140521828    6.79203514607684   11.87452844227693
H         8.18259404993848    5.50638602111000   10.93309466714183
C        11.18398955809474    7.05247644293880   10.18768321611059
H        12.18217341294094    6.73362566697685    9.89677299132046
H        11.26854618286137    7.65100898080785   11.09227372695037
H        10.78327053349351    7.68609748048617    9.40281489199007
C         9.89116464076256    5.18392347958510    8.00706316259395
H         9.48715615726942    4.23863523543786    7.58473713565915
C        11.18323932845874    5.48050066514733    7.24022491805629
H        11.65141814164025    6.40321765853406    7.57110031470341
H        10.96342858110698    5.56819253227535    6.17937996993146
H        11.87920097418376    4.65537712534115    7.37190968106000
C         8.84603282149384    6.26589890596205    7.76279640101345
H         8.64142223338537    6.29816851910438    6.69473825253445
H         9.19032345994033    7.25235810305547    8.06022941569994
H         7.91501826370157    6.03739708570606    8.27286506814159
C         7.34601423833844    2.85855291306106    8.99070822356283
H         7.36176361702779    3.91457537208056    9.25391979307575
C         6.34808942995351    2.50716810271564    7.90675350407252
H         5.77152017666184    3.39894122109735    7.65048544621698
H         5.64304971592960    1.77236373125005    8.29904593179557
C         7.02435149609593    1.97313339083264    6.62918042563331
H         7.23381413188843    2.81305409814342    5.96150505130468
H         6.34136799714306    1.30096107203253    6.09767707382931
C         8.32517129742338    1.25187624240972    6.89604053164315
H         9.03237690644681    1.29291202120581    6.06732095142579
C         8.50886219244649    0.27975708901585    7.85235508935551
H         9.36942811566949   -0.38101678601076    7.74839942325060
C         7.39683481848419   -0.24230686628088    8.73449394582302
H         6.45468955697522   -0.18276357667301    8.18722149326594
H         7.57825526977437   -1.29769942007021    8.94873080004832
C         7.28827770198906    0.52105865367480   10.06899974927881
H         7.90197029797149    0.01392410981624   10.81900219107611
H         6.25397857649971    0.49267817695791   10.43182199382918
C         7.74574316541464    1.96071430238728    9.98344145597005
H         8.00414300370014    2.38107726572839   10.95658640776198
N        11.15558988205047    3.11846061165609   10.62459882546683
N        10.20349302431413    4.85961349685748    9.40418040548591
Cl       11.37585455175158    1.86631630993664    7.58389153707620
Rh        9.32234906573302    2.17867759273778    8.58625427305341
O        13.51486548617478    1.63875688568813   11.26080013037675

