69
CSD_code = HUXJOB | q = 0 | S = 0 | Stoichiometry = C33H32ClN2Rh | MND = 6
C        -1.77854482634233    5.10609424402593   12.03640562034198
C        -1.85283553294468    2.47150468013197   10.37458330769555
H        -2.84496702978443    2.91197077335710   10.27918528462694
C        -0.79700485324227    3.14775800167384    9.76369059334226
H        -1.05241823100770    4.06898134694437    9.24729819801790
C         0.43824649468411    2.46258629292560    9.21644753778499
H         0.79923963119851    3.02200220955515    8.35054225652353
H         0.16578472498234    1.46625684621018    8.86363087265291
C         1.57604484820895    2.37675691426028   10.25085498014392
H         2.22387443609154    1.52151387215218   10.02688971518818
H         2.18965322595930    3.27868640222627   10.17535821653760
C         1.08511127188500    2.26910934640697   11.67526860417127
H         1.78799671095527    2.66073860263053   12.41153636218126
C         0.09004557246886    1.42441828373410   12.11178221603448
H         0.03614775774482    1.21672106933273   13.18031171433914
C        -0.60771823484567    0.41519887599390   11.22981782225535
H        -0.85726336627989   -0.46566666344662   11.82514597497473
H         0.07809800174969    0.09004896114302   10.44585870031144
C        -1.90123743106877    0.98066899893970   10.61583529836822
H        -2.12095465992669    0.47269987511499    9.66943906885307
H        -2.73617330822226    0.77913689445408   11.29148466079883
C        -3.84905609114074    3.98757397833421   12.52155219550613
C        -3.36180262334558    2.96872857445539   13.33706846370423
H        -2.43413631120261    3.10091573606220   13.87868087608235
C        -4.10165191932350    1.80832065184163   13.49868866695596
H        -3.72207546217217    1.02334031586333   14.13571993480860
C        -5.32344793256533    1.65814681965913   12.86580591437234
H        -5.89636645562698    0.75206487808601   12.99557727851430
C        -5.81633697549489    2.68177539695933   12.07212593027045
H        -6.77160933594848    2.57411810930012   11.58000464068839
C        -5.08642052749205    3.84229435492948   11.89854258388220
H        -5.46726931165655    4.63565871805900   11.27127869345082
C        -3.85878504452908    6.37120758591426   12.30948428458395
C        -3.75761118289445    7.26203789192917   11.24623090823372
H        -3.09043809087114    7.04078219858373   10.42590039422738
C        -4.51152644374549    8.42019538094198   11.24172061447060
H        -4.42639481822513    9.10905206956730   10.41461032483172
C        -5.37688854332476    8.69337459552446   12.28722445002573
H        -5.96132977200678    9.60074775036897   12.28223990741105
C        -5.49676639999581    7.79506190322372   13.33448851877061
H        -6.17626512800499    7.99997283676675   14.14798005669750
C        -4.74563172944815    6.63549098780829   13.34779886330416
H        -4.83364790764522    5.93180138631336   14.16198048265871
C         0.23660321797705    6.25712013400800   11.52536135991830
C         0.39688802145575    6.21195962325128   10.14415972109041
H        -0.47476024479234    6.18743740435140    9.50636787221446
C         1.66685202586996    6.22802665979684    9.59503827695087
H         1.78740372119428    6.18513930259547    8.52227534658305
C         2.77782065863352    6.30887582943420   10.41729299922697
H         3.76870951716423    6.31505736260735    9.98749286890212
C         2.61604822524650    6.39547231521700   11.79072016865129
H         3.48069915545236    6.47118330995283   12.43294766358799
C         1.35118175255447    6.38190551164128   12.34884776898109
H         1.21692628312709    6.44203405935321   13.41763387860089
C        -1.37411759639784    7.37536403856068   12.89927381049288
C        -1.15865961730796    8.65774654282036   12.40788572587187
H        -0.78118195197676    8.78952231210688   11.40421150338557
C        -1.43174003840757    9.75321139861885   13.20525799150990
H        -1.27078113014723   10.74866879955692   12.81868422475875
C        -1.90943685610115    9.57689631811771   14.49282213087497
H        -2.12594548903698   10.43518020339779   15.11093244307565
C        -2.09035211727891    8.29781262441493   14.99245188890831
H        -2.43451923365797    8.15619086608124   16.00591048775695
C        -1.81962962285925    7.19609042042042   14.20441662701643
H        -1.91663592814719    6.19498498226598   14.59709641532497
N        -3.10222548508873    5.17295247636661   12.31862319443449
N        -1.07614810007612    6.25655213944385   12.08612290811683
Cl       -0.08334146242163    3.99728202101538   14.04803705209538
Rh       -0.71642490059023    3.44518539635110   11.88006468306374

