66
CSD_code = HUXKAO | q = 0 | S = 0 | Stoichiometry = C24H38ClN2Rh | MND = 6
C        -8.07895095115185   -3.11634814362730   -4.29911802164462
C        -8.33875750291957   -3.83718803036703   -6.61310169681045
C        -7.56529372212302   -2.87409699952136   -7.25288035528277
H        -6.82042701193288   -2.34163207561393   -6.68062952150633
C        -7.73191767265734   -2.63581820897499   -8.60470370528899
H        -7.12256443645284   -1.89125356840868   -9.09494549549067
C        -8.66630174744968   -3.35708062950791   -9.32896814092174
H        -8.79362784026817   -3.17430163922753  -10.38544739086947
C        -9.43476363569788   -4.31887211809973   -8.69516746688219
H       -10.16441605364539   -4.88448083820059   -9.25609929917533
C        -9.27591151642292   -4.56249480090309   -7.34242054116965
H        -9.89317337612236   -5.30097799045081   -6.85337391949004
C        -7.34583520079859   -5.33404497857347   -4.97231839688173
H        -6.86841671434964   -5.19188026544156   -3.98398678641462
C        -6.23251195396054   -5.55918178179832   -5.99050160196799
H        -5.65585388373454   -6.43366216059708   -5.69998247785191
H        -5.57064843748793   -4.69664422288469   -6.00153893356079
H        -6.62705244394552   -5.72032922781269   -6.99161303891215
C        -8.28539896864597   -6.53678541878186   -4.89927301396067
H        -9.15943547913034   -6.30745952261474   -4.29305805660486
H        -7.76418204220343   -7.37657356846279   -4.44655414421929
H        -8.61099346450486   -6.84097914167764   -5.89111775565698
C        -8.40850462021946   -0.80960248488049   -3.76872595837415
H        -7.68682336299282   -1.17128112501799   -3.00546731520446
C        -7.60271926594920    0.08225585723331   -4.71716484821308
H        -8.20602827286200    0.47898693976117   -5.52706892895302
H        -6.77405419789726   -0.48640007222731   -5.13105097688056
H        -7.18835744194153    0.91623568944170   -4.15576889951752
C        -9.47353107795834   -0.00495487166022   -3.03268944013176
H       -10.03571408852070   -0.62947923839413   -2.34465236856108
H       -10.15894989017453    0.49385337460547   -3.71197552147798
H        -8.97067883433117    0.76419282631740   -2.45008191539408
C       -10.12406582802341   -2.07448551869237   -5.19862122634772
H       -10.12343354983702   -3.02799819526200   -5.72505636427740
C       -11.34271991622226   -2.13484765856372   -4.26257547006843
H       -11.64585226989525   -1.15662971672544   -3.90721424553963
H       -11.12901311416387   -2.77355420595925   -3.40841657822736
H       -12.18097348607986   -2.56496835856883   -4.80693032315774
C       -10.29813865671558   -0.98704050233407   -6.25572997292819
H       -11.19105713792189   -1.20627932153418   -6.83772347764021
H        -9.44715966724040   -0.97571284594444   -6.93162486664972
H       -10.41899786872805   -0.00343186020300   -5.81284657392386
C        -8.22978842176427   -3.21997881969638   -1.18218570939654
H        -9.15280116313069   -2.74797100314732   -1.51475345355116
C        -8.01050199364300   -4.53033472784573   -1.61050784025478
H        -8.79245610838730   -4.98924779214784   -2.21587618619471
C        -7.16722562800948   -5.54606143162843   -0.87263594245324
H        -7.72166110764886   -5.90816284153403    0.00135760963653
H        -7.01774861287801   -6.40432853155149   -1.53352297105163
C        -5.79215351873138   -5.00583378562938   -0.43461237465837
H        -5.08091560799789   -5.83440397287091   -0.41067481974085
H        -5.84888495812533   -4.60180319615076    0.57749783023418
C        -5.26795474264073   -3.93230094020149   -1.36208844925800
H        -4.41864011962550   -4.22590104780282   -1.97905047548161
C        -5.48440423462520   -2.58700181024835   -1.16350794851855
H        -4.77899377520939   -1.88455417496286   -1.60831660225721
C        -6.31044487682490   -1.99823532405663   -0.04286553806531
H        -6.45741392831196   -0.93545937784759   -0.25294919834479
H        -5.74692146734172   -2.06642609098746    0.89457408998603
C        -7.68761924976026   -2.67027797307352    0.12122772470507
H        -7.62978255597417   -3.48063887780251    0.85008294367502
H        -8.39078370714849   -1.93379473575447    0.51692091912723
Cl       -5.26290276144601   -2.55602952095587   -4.35271616315860
N        -8.08919610369684   -4.09048933985966   -5.23174874422597
N        -8.86580097645959   -2.02703210748785   -4.45459204285598
Rh       -6.79669777726888   -3.23080595661434   -2.76107162590613

