91
CSD_code = HUXMET | q = 1 | S = 0 | Stoichiometry = C44H42NOP2Pt(1+) | MND = 4
Pt        8.89808449549746    3.32253167826541   37.27953139175347
C         9.63319913186801    2.52959166872854   35.55292493531579
C         9.38037665266260    2.90318569463769   34.22153499164835
H         8.76643100498536    3.76802449891123   34.00158486500127
C         9.90651361419904    2.19140112695025   33.18050905574619
H         9.70871903367751    2.49264893063878   32.16219483325807
C        10.70238765685530    1.05231533046691   33.40676636623632
C        11.22916836741932    0.30204958105570   32.33487227259322
H        11.01617365478440    0.62624680936516   31.32689711483768
C        11.98686373272547   -0.81017806116876   32.56512120502423
H        12.38678673846172   -1.38246066818764   31.74236958869099
C        12.24578682387721   -1.21808132885044   33.88180195034894
H        12.83995037057121   -2.10282311229461   34.05440525805358
C        11.75248763646311   -0.51065206218932   34.94244738017721
H        11.96014610662582   -0.85800888493698   35.94275117834445
C        10.97102450685329    0.64956319147371   34.74287577403605
C        10.43107882125588    1.42800078924607   35.79925561746073
C        10.66209217921785    1.07827219995791   37.25263281018172
H        11.62186420401104    0.56605764165595   37.40171621142318
C         9.51553494026973    0.17373406904703   37.71465589640982
H         9.73023914795825   -0.32465800909556   38.65657294375841
H         9.33379061046761   -0.58719297055919   36.95972187606237
H         8.60452086739005    0.77397159060106   37.82194342794074
C        11.83711486616420    3.15858641453655   37.61531827794336
H        11.82343543719212    4.11220491443763   38.14419393390850
H        11.82620415477436    3.34172340178340   36.54155671684364
H        12.77052490407392    2.64130162333673   37.86479328385003
C        10.83892813411564    2.07595065952415   39.45259094765762
H        11.75581840258397    1.50367872212568   39.63554395342985
H         9.99551387424120    1.51396903218025   39.84451100212121
H        10.90959499960451    3.01793900475297   39.99770681878853
C         7.98074205721244    2.76762233425433   40.81066007062692
C         7.17788138834187    1.63537065607720   40.66606638546647
H         6.56390589082860    1.52791785001042   39.77932409709165
C         7.16322924651603    0.65607479157065   41.64005317036922
H         6.53534720080199   -0.21376859079459   41.52083294495050
C         7.95702415132178    0.79393696702188   42.76834769923536
H         7.94240656659524    0.03471500843303   43.53460772281246
C         8.77449913098709    1.90300060134430   42.90649173577231
H         9.40009573967044    2.00760130957793   43.77979425695434
C         8.79818934926151    2.88322020121117   41.92877134831320
H         9.45576900809998    3.73290255993115   42.04096938956074
C         8.82069626167637    5.42711887500527   39.99050873878224
C         8.67502684127381    5.99804018011531   41.25363899871726
H         7.98114461515538    5.57170211668710   41.96430742053468
C         9.41294422058744    7.11870525999961   41.58844332917910
H         9.30431322154664    7.55724101402330   42.56870377943541
C        10.28600012785734    7.68346701638831   40.67030607322152
H        10.85779871783236    8.55761216328875   40.94061441457020
C        10.41842899993834    7.13303782121047   39.40580630654609
H        11.08743200649411    7.58010840892611   38.68605493005301
C         9.68786130863791    6.00831792218864   39.06952281376381
H         9.77076677191610    5.56886749351422   38.07497992170120
C         6.11393901168867    4.42182396288115   39.57671961895638
H         5.66781662070764    3.73882815950373   40.30604200941663
C         5.74920575479999    5.87437370347658   39.93858043827819
H         5.19777006024338    5.91774430310022   40.87560345291566
H         6.59807869626546    6.55317812932044   39.99086321563153
C         4.81661960281983    6.24467259666071   38.74846186716992
H         4.10572193427225    7.04314759777771   38.93232828919318
C         5.76321743745855    6.39059060505828   37.58044228669402
H         6.12670397148871    7.32493926609797   37.20039752136284
C         6.08668660029693    5.14051355641009   37.23953892564169
C         5.33079635797560    4.26852728451331   38.23105584612271
H         5.09775940608855    3.25102917862901   37.92692162115551
C         7.85973614036048    5.91551490347254   35.20071127968435
C         6.95064005708674    6.79963650821216   34.62555993868643
H         5.88860871284870    6.62344960053686   34.72025919364198
C         7.41466229302013    7.91103269836020   33.94460672048775
H         6.71169570146791    8.59431737728155   33.49270431207322
C         8.77634694449394    8.15078852853516   33.84361370983504
H         9.13053247523989    9.01899362356750   33.30968130200010
C         9.68211468094038    7.28101690368610   34.42984057503512
H        10.74183618488789    7.47143376505219   34.35433945774002
C         9.22547760428283    6.16612589071110   35.10767639793493
H         9.92125604363071    5.46752093888291   35.56043631306501
C         6.32911588051764    3.34480577198463   35.08385632800262
C         6.21997989932768    2.04144031215127   35.56127958122099
H         6.74280070692305    1.77352089388592   36.47687684732293
C         5.48115640470945    1.10475807186376   34.86660326221646
H         5.39729873288115    0.09444612757464   35.23723554341395
C         4.85520610335167    1.46610607585650   33.68340944335304
H         4.27955707912722    0.73676456136890   33.13491835414440
C         4.97785478107074    2.75701561347034   33.19688468536567
H         4.50038576175356    3.03021145530813   32.26834383797616
C         5.71342378329062    3.70175216772800   33.89224976027374
H         5.81971403684576    4.70094155014890   33.49758420965202
N        10.67957210852171    2.34653176553912   38.02491865720619
O         4.16791291802381    5.01784362669652   38.47380949813385
P         7.92715855078692    3.95244961702419   39.42404723528035
P         7.31338306713582    4.45940787125588   36.12639103718394

