67
CSD_code = HUXNAR | q = 0 | S = 0 | Stoichiometry = C26H37CuN2O | MND = 2
Cu        4.37242365882938    4.57390102482557    4.07614084319153
O         4.90791359371161    4.50299396903654    2.40685272974642
N         2.46731201043978    4.57055250531839    6.14062237744323
N         4.61626426792867    4.70132581619023    6.90073655183283
C         3.77531691357190    4.62363952687142    5.86469976646307
C         1.90464456286383    4.56044915062625    7.47984338365553
H         0.96511578914896    4.00251789223779    7.45755168776282
H         1.67705089399143    5.58502854503779    7.80236825679088
C         2.90340864091743    3.92826589034784    8.43841039515702
H         3.05704455942480    2.88238821507217    8.16626814117193
H         2.53855965114059    3.97367537344866    9.46431746025542
C         4.21250398578061    4.69185242685994    8.29657943399141
H         4.08492147913992    5.71917704160610    8.66066686544468
H         5.00944911495143    4.22505333475273    8.88210099323511
C         1.53336049812464    4.48937009862140    5.06303194753289
C         1.06452852327363    5.66032036817496    4.46658906658597
C         0.13373753892905    5.55924320890431    3.44472106028456
H        -0.22511820335741    6.46046231306254    2.96810693741949
C        -0.33664785082905    4.32775098055492    3.01084134322912
C         0.14763027290255    3.17825966716314    3.61852710124697
H        -0.19828523184521    2.21267968135252    3.27768680666746
C         1.07942867608077    3.23850068152011    4.64299195814298
C         1.60952509733847    6.99207687267031    4.88267355409734
H         1.47543383420638    7.16016437827986    5.95006984262915
H         1.11873394084351    7.79488557452072    4.33939999914044
H         2.67892281213319    7.02401096328226    4.66543180570649
C        -1.31012518173260    4.24019999661239    1.87618815730424
H        -1.91989269775456    3.34313956084096    1.95354166085142
H        -0.76659560582141    4.19924140626895    0.93190064420814
H        -1.96030612397120    5.11164601273197    1.85254226097025
C         1.62840653233578    1.98704327265614    5.25823472502336
H         2.71744929231375    2.02861965049647    5.26505183834331
H         1.31489326073204    1.11471350174190    4.69129693046780
H         1.28495309596327    1.86953936046346    6.28616593495562
C         6.02144911187566    4.79282827514253    6.66041972727078
C         6.63548567578501    6.04382159465740    6.63074712839225
C         8.00843977372339    6.10630323696557    6.44620930574587
H         8.49056337558759    7.07312526144584    6.41549816627734
C         8.77240467424483    4.95930225223078    6.29313894580092
C         8.13539714442060    3.72634766744444    6.31881124630023
H         8.71894266216899    2.82627298176573    6.18747343130392
C         6.76638573266173    3.62340079173476    6.50103161117958
C         5.82946253202258    7.29851441658286    6.78342593761859
H         4.87830789244240    7.20315624023759    6.26306119394510
H         6.36912242509080    8.14772635803659    6.37301849043775
H         5.62938815752461    7.50198131320382    7.83621519446210
C        10.25086234971240    5.04654794590602    6.06740583584195
H        10.46027601285946    5.03148611957648    4.99760816946431
H        10.76375617742974    4.20145541513271    6.52120221158341
H        10.65467915091361    5.96890216944620    6.47789823075263
C         6.08397124140501    2.29020983421261    6.48507217633853
H         5.49719512870054    2.13362430034791    7.38933152626728
H         6.81046872031151    1.48719534469695    6.39714104887838
H         5.40787329650536    2.24699976542849    5.62930501589866
C         4.12279063952573    4.39881954357711    1.27339162633502
C         3.18868754323915    5.61905667986252    1.12355580427632
H         2.48961981352469    5.65526375929036    1.95843486099494
H         2.62575472621268    5.56316492966891    0.19396187487873
H         3.77935300903703    6.53297998075083    1.12570001656069
C         3.25447397733356    3.12243602753375    1.30422629079619
H         3.89269428179697    2.24916164058501    1.42404768620529
H         2.68427214333282    3.02044988560227    0.38300663322219
H         2.56294698737744    3.16456203020771    2.14544069149049
C         5.05667953140975    4.33499478830713    0.04901777533080
H         5.66935572522260    5.23246235830722    0.01342929946618
H         4.48653964363393    4.25285922020971   -0.87357591562388
H         5.71653914133025    3.47569960975939    0.14049630130922

