101
CSD_code = HUXNIZ | q = 0 | S = 0 | Stoichiometry = C45H50CuN2O2P | MND = 2
Cu        6.13450505947968   24.66486758453211   15.59838513415835
P         5.87272917159367   26.67027805918356   16.49783757122502
O         9.39590081918461   20.72143046663112   15.85395407721988
O         5.05452750042774   19.88049151601375   16.85770853175350
N         7.86376008894456   22.34411194584667   15.53214478140815
N         5.57232352481209   21.87804839363849   15.95751953217110
C         6.48785061094659   22.72917395821992   15.18289468030521
C         8.23866067814388   21.05307436025257   15.66668320613274
C         7.10265084736118   20.02986873350332   15.58471688923327
C         5.80723280427584   20.57547032936790   16.19567177598504
C         8.76909009966618   23.39527906969221   15.83681872036457
C         9.28923927386939   23.52992115385747   17.12688421768918
C        10.06667499842585   24.64428688712152   17.42046030847789
H        10.46138632191354   24.75180172788147   18.42198976526129
C        10.34918172445656   25.61193213493514   16.47152439029451
C         9.88157117670419   25.42060962224878   15.17853549675356
H        10.13768342297558   26.14069363489696   14.41374751949842
C         9.10979545976275   24.32130191841921   14.84230700497579
C         9.06226167218858   22.49592806542806   18.18372794459474
H         9.80010274880823   21.70196028963854   18.06131549044891
H         8.08193159546450   22.03570599082509   18.09433118221668
H         9.16747499244225   22.92552909020853   19.17793296532576
C        11.16021357753161   26.82696413458529   16.81034252761404
H        12.08933625844616   26.83188632469349   16.24149666037059
H        11.40501814136552   26.84901633021054   17.86942574970643
H        10.60834534706582   27.73243131903405   16.55951658195294
C         8.68575196602384   24.11582990850216   13.41765935860293
H         8.72452786039159   23.05858145924293   13.16520100762028
H         9.34472903369153   24.66300062918737   12.74731378009442
H         7.66479003631473   24.46486418029891   13.25756692511751
C         6.84960419836121   19.64785332391679   14.11808194271565
H         7.76441481404067   19.24526722081743   13.68675130210411
H         6.53264273255648   20.49882491142038   13.51981329476480
H         6.07446011581898   18.88492403839009   14.06962234545672
C         7.52310666605096   18.77718436018342   16.35751585300620
H         8.43986279135818   18.37350332316486   15.93647477100319
H         6.73355390577566   18.03206083303502   16.31046904147227
H         7.70157283158499   19.02281949387380   17.40232471001227
C         4.36711375354102   22.49641196813414   16.40759504402528
C         3.25347322786444   22.51168914105294   15.56713043092811
C         2.10684669861774   23.17394172509896   15.98341416453064
H         1.24413629019719   23.18766684003162   15.33127826103450
C         2.04210368996925   23.80816944901647   17.21415798951200
C         3.15079448367482   23.75217821734111   18.04762107215026
H         3.10764006552283   24.22187178649533   19.02060007260679
C         4.31036185411464   23.09615250667654   17.66791144931639
C         3.29736484808004   21.82383161528835   14.23655349099938
H         3.68773049735697   20.81483692120984   14.35268323123289
H         3.94878943906569   22.36350377748422   13.54908481322368
H         2.30363472023041   21.76823020774146   13.79922795442313
C         0.80523199315182   24.53296323345803   17.65464565206545
H         0.03211413794758   24.48412670225829   16.89189511110022
H         1.03026611586838   25.57993513859401   17.85826715306209
H         0.41472668479220   24.09108233611589   18.57031159395094
C         5.48180719921037   23.01693296131727   18.59513464797138
H         5.25227627825426   23.48145537885267   19.55119954407037
H         6.34496976457263   23.52436739730746   18.16334823441307
H         5.74330723465594   21.97315066590305   18.76317063546439
C         7.12900847706526   27.92576570869946   16.10332798908892
C         7.62021574178355   27.93721396338870   14.80045162991965
H         7.25115413208197   27.20618772505736   14.09247120517226
C         8.57072386446425   28.86232445751843   14.42234672303898
H         8.94932457608944   28.86470389877712   13.41024360761159
C         9.05940988375444   29.79237949479507   15.33606370644099
C         8.56674073790866   29.77201885692767   16.63541716760547
H         8.93940561772925   30.48519188567502   17.35718762634409
C         7.61133399182316   28.84994568201261   17.02219131405894
H         7.24818198517093   28.84263410947423   18.04060227649309
C        10.10741179180246   30.77633183675436   14.91897091949747
H        10.33013932121972   31.47569968050963   15.72052112888079
H         9.77678685602237   31.33676079056811   14.04588554159790
H        11.02553271360274   30.25527926198303   14.64886876347001
C         5.94783667751468   26.56016983582786   18.30725001107911
C         7.15968412255464   26.15533131463343   18.86721430134448
H         8.01555730658394   25.99422920300877   18.22310490270031
C         7.25996326977520   25.95832242875255   20.22757121787258
H         8.20111588927942   25.64744752864675   20.65762553555273
C         6.15663389511595   26.14255625423479   21.05864005880189
C         4.95209658704969   26.53371782834839   20.48920684783179
H         4.08574135395918   26.67533978969701   21.12005144447635
C         4.84000007037818   26.73722940641511   19.12489859424509
H         3.89257578529034   27.03142899250206   18.69571089296058
C         6.28024548148404   25.90703209764923   22.53157699857701
H         7.05452738640157   26.54556635696119   22.95475805774952
H         6.56342397377685   24.87292228527794   22.72415144819709
H         5.34251241283414   26.11090895117078   23.04174385801019
C         4.29807801826002   27.52846458492074   16.19278263693173
C         3.22660252091554   26.75929283102714   15.74893247883324
H         3.36704640570615   25.69827147815342   15.58297599246850
C         1.99375375784945   27.34499794738434   15.53719136440286
H         1.16615357197216   26.73944757980007   15.19823346004844
C         1.80744675912133   28.70586540021498   15.75440501936428
C         2.88898621480011   29.46866003676046   16.18490128736342
H         2.75740716290270   30.52825201607732   16.35249094059212
C         4.12514532344215   28.89232804135271   16.40344679085264
H         4.95661160170780   29.49695247138029   16.73747495100405
C         0.47634534705368   29.34287754390364   15.50401343395110
H         0.33287723886121   30.21066216072631   16.14338490585910
H        -0.33126348366707   28.63569300351838   15.67718456700000
H         0.41520456504044   29.67523407671038   14.46721072344283
H         6.35076724862896   22.43508651055624   14.11932009607065

