77
CSD_code = HUXPEX | q = 0 | S = 0 | Stoichiometry = C33H39CuN2O2 | MND = 2
Cu        6.25632736195961   15.37004585257388    8.88762742169608
O         6.78114422604185   20.21860069541986    7.26749505357245
O        10.46071177363222   17.40385955194092    6.73952806214685
N         6.67944804285767   18.02772787433408    7.82106548164396
N         8.49571639242229   16.63420417232865    7.55386714962057
C         7.21697684894209   16.79127742608947    7.98225196297873
C         7.28368744673023   19.12215843257887    7.21928183407945
C         8.55023975075026   18.82408345207528    6.44404252457184
C         9.28355801883634   17.59118233071738    6.92993835432245
C         5.36997295218055   18.27182920425234    8.37138155510383
C         4.25457063726683   18.07532719347233    7.56267884728007
C         3.00390904602751   18.35822631827302    8.09002119322820
H         2.12922066990027   18.20588723728693    7.47451557177684
C         2.85423218892960   18.83237639250106    9.38477212289563
C         3.98866389611479   19.02536465576601   10.16141937292554
H         3.88288597965352   19.39884575724260   11.16972924554807
C         5.25636491343500   18.75682811549691    9.67170334631281
C         4.40992405157146   17.56133814929872    6.16443626325193
H         3.43864080633481   17.42558021844016    5.69738953307722
H         4.92857692339987   16.60152117176598    6.17020125731027
H         4.98696038942820   18.26371483682480    5.56290990273976
C         1.49630175736304   19.10812286204035    9.95069552548993
H         0.75700564070806   19.20864014804102    9.16063012147824
H         1.50356679292002   20.01742444469603   10.54751631469623
H         1.19479457423221   18.28454444495535   10.59782904431207
C         6.47738261425294   18.98477705708434   10.50905413374815
H         7.11184381592888   19.74508642029045   10.05334463816153
H         7.05791535177732   18.06593669919144   10.60060712001508
H         6.20158397490093   19.31830176479975   11.50559742495293
C         9.48235353499549   20.03714271410985    6.46971395650429
H         9.79323163881915   20.25353119690491    7.48996809936383
H         8.96551167438894   20.90685821303973    6.07399778605575
H        10.36797706128212   19.83338114927535    5.87448946343445
C         8.11154547949124   18.52616252939365    4.99341237191534
H         8.98960629138976   18.32567252935850    4.38316752810241
H         7.59097588175756   19.39107722837434    4.58773646099289
H         7.44814397116419   17.66327876077730    4.95083335227684
C         9.14792196658553   15.37626900290376    7.81698950571772
C         9.13741433840992   14.39543366797674    6.82977380633762
C         9.80862886524873   13.20811585543434    7.07693962883338
H         9.80528406985874   12.43653559728561    6.32101845289887
C        10.48162079598732   12.99164019098444    8.27016229726050
C        10.47919335583600   13.99414099169566    9.23068820976048
H        11.00427411402756   13.83748318340036   10.16191808834737
C         9.82390336399561   15.19668211146959    9.02096381494356
C         8.41055772293374   14.62240083890454    5.53988613808812
H         8.44225336711678   13.72972097095540    4.92170413549837
H         8.86872763206843   15.44147040953293    4.98555615830946
H         7.36678176587607   14.87497704031874    5.73118225928823
C        11.17559345946968   11.69194081046662    8.53426821775441
H        11.41172045975934   11.18030579494976    7.60498135554956
H        10.52719453125875   11.04370195417687    9.12405788665099
H        12.09323071369994   11.84944399961677    9.09625653931094
C         9.83733354821927   16.27990621028565   10.05564629436275
H         8.82162199092437   16.50416406897584   10.38528141706896
H        10.27401870625362   17.19148170084183    9.64765983773331
H        10.41905906683616   15.97554050673584   10.92123207708475
C         5.16827277992467   13.83627734528918    9.49370750100806
C         5.65480403537603   12.51109925028807    9.48189153373247
C         4.92446430951906   11.45489958272103   10.00177583882123
H         5.33881556934895   10.45475344653761    9.97653877885382
C         3.66757829295814   11.64940334685778   10.55436609514211
C         3.16063219029880   12.93718778871863   10.56766505520023
H         2.17904392757160   13.11543876927221   10.98890717727733
C         3.88265695436109   14.00263826379661   10.04926985063452
C         7.01004785802266   12.22137393776470    8.89157409343230
H         7.79290095911037   12.73630269480289    9.44872203127790
H         7.06055232953639   12.57055226965083    7.86084924059721
H         7.22290541523815   11.15448408220800    8.90566171626604
C         2.88802194049656   10.49137277004083   11.10396083929750
H         2.65040716145513    9.78241178178429   10.31043828696036
H         1.95747872583406   10.82786050651695   11.55557488533966
H         3.47004285361709    9.96245249813597   11.85833041872501
C         3.25860078462386   15.37324588548527   10.09109947600915
H         3.21959644360902   15.80714593993831    9.09258600886919
H         3.84325221575865   16.04824289885970   10.71691462258819
H         2.24671904718477   15.32938483340390   10.48875103157735

