63
CSD_code = HUXSIE | q = 0 | S = 0 | Stoichiometry = C21H38ClN2Rh | MND = 6
C         4.90003668402183   17.49198881221347    4.58839058508888
C         3.92256258738788   15.29074640221547    4.90616985113820
H         4.40330395703813   15.12939314462299    3.93439954209686
H         2.84855073150590   15.07748652604535    4.81577525615502
C         4.55007082230351   14.35512608638217    5.93734839033035
H         5.62541428076428   14.54157598832538    5.96187395197548
H         4.38046001372860   13.32119794893255    5.63190213716627
C         3.96946339172898   14.61507648881139    7.32367607168200
H         2.89389686364513   14.39324635368759    7.31447603841289
C         4.17219729389764   16.09610373910278    7.62707703955899
H         5.24289242170842   16.31062312280232    7.62290387248912
H         3.76722066001451   16.34999407552013    8.60864110262966
C         3.50036710545639   16.97955558312782    6.57162428395842
H         2.41764919154435   16.79513186586556    6.56258216192627
H         3.69098360260055   18.01524533044324    6.84005310750032
C         4.64656666303287   13.74299367828431    8.37484213473189
H         4.23185622591017   13.93774247965891    9.36154724272100
H         5.71280588596894   13.95381087874832    8.40025188650589
H         4.50824202420640   12.68903051131614    8.14425584766298
C         6.00830939178246   19.61285813119894    4.60032865944109
H         6.72714963758761   18.91091455546875    4.12799938443187
C         6.56834433612117   19.92734467196577    5.99055176123886
H         5.94979196744231   20.63912520336912    6.52945083738145
H         7.56675670689372   20.34562222411281    5.89172415428141
H         6.64519827756346   19.00740684389633    6.56498246407487
C         5.96360867036404   20.86504608210441    3.73167341879027
H         5.59571082429101   20.64146387164193    2.73447965505711
H         6.97924506758819   21.24345317871044    3.63629904164161
H         5.36022849374773   21.65429700213584    4.17128546720537
C         3.44520039966214   19.45704117034888    4.82625888905634
H         2.75292081723475   18.64319584032054    5.05437453808309
C         2.96265282931717   20.01638355025550    3.47658799725274
H         3.40079860915556   20.98030980535132    3.24505629598172
H         1.88237567317386   20.14029233365097    3.51390885597827
H         3.19686919538492   19.31727959752395    2.67716799024315
C         3.30400614617166   20.51857283284245    5.91753710670310
H         2.25526852171145   20.79483354274896    6.00576301018279
H         3.86731300315778   21.41498783844643    5.67812021583827
H         3.63987536743259   20.14689069913035    6.88249743120811
C         5.40896827055584   16.32138091060339    1.74969775118614
H         4.32842992858227   16.29416140575097    1.88848090925404
C         5.99897121240120   17.58731459156526    1.74265667656735
H         5.33087361032270   18.43951343017355    1.86384916675173
C         7.27680192176115   17.94587719507789    1.01870455843455
H         7.59852593188351   18.92972855681646    1.37180472857079
H         7.07001880333177   18.04114615435471   -0.05399607075358
C         8.41787184294615   16.93690165272382    1.24658591773063
H         8.40075510593027   16.16245655168906    0.47829443805034
H         9.37252921445996   17.45979608802392    1.15516695219196
C         8.33966400579234   16.28580998042420    2.60819945525927
H         9.09860046724149   16.60910807774956    3.32037176681139
C         7.70322361516279   15.08993705139110    2.84725699155621
H         8.01211829101035   14.50845301881240    3.71622397169939
C         6.94490674596567   14.29122127625630    1.81183249137545
H         6.38601061414415   13.50812525073174    2.33151815030457
H         7.65964257253763   13.79056077515131    1.14881904444138
C         5.96185264444279   15.13847027032894    0.97993813207025
H         6.44695067750929   15.50199018921067    0.07238616966809
H         5.13284386444612   14.50062448616890    0.66405942884721
N         4.05859133878006   16.69419705512296    5.26062744725602
N         4.76688553043085   18.84173746751244    4.71854443163808
Cl        7.34258464077153   16.47078162938891    5.70750139288239
Rh        6.41781480734056   16.66761894365115    3.59923842039720

