33
CSD_code = HUXSEZ | q = 0 | S = 0 | Stoichiometry = C16H8ClF5N2Pd | MND = 4
Pd        4.25263346696581    3.86900299733955    4.40012343236177
Cl        4.43085587316667    5.89117096803598    5.25822742036293
C         4.17283409296458    4.78278140729746    2.65171262338050
C         2.93240022828901    5.18959022189354    2.18677732730642
C         2.77212194650763    5.93486542102019    1.02857897086516
C         3.91235800009634    6.29211405699198    0.30924857226198
C         5.17799714139673    5.90260832232312    0.74498587628369
C         5.28208388041578    5.15714358586533    1.91188507091980
F         1.87199734422210    4.78770087502901    2.93975654946002
F         1.56297658143754    6.30562789503765    0.58677368250518
F         3.78907254691323    7.00624318780075   -0.81784086855676
F         6.25883041521921    6.24380905102356    0.03072806843014
F         6.48172448905638    4.73545092017375    2.37902594991771
N         4.30301009190025    2.88686066799417    6.20625842400121
C         4.42151571230771    3.44032868168773    7.40798661724991
H         4.48727137485262    4.52373240496394    7.42522953492963
C         4.45994548060371    2.68700070857518    8.56989219199324
H         4.55696776790610    3.17276666366468    9.52698373325090
C         4.37255594240495    1.30583932482209    8.47036535672618
H         4.40073575820156    0.68582524235410    9.35328909209423
C         4.24875441279288    0.72949486956439    7.21905304434436
H         4.18107972131411   -0.34185631569449    7.12687675505540
C         4.21484139263608    1.54729273683606    6.08873823228614
N         4.08925923652280    1.98852233710167    3.74313004661388
C         3.97321985827533    1.60292263908745    2.47180164499102
H         3.98182252023821    2.38911713492028    1.72666364336117
C         3.84824541084151    0.27872137456896    2.09635419304772
H         3.75699554684462    0.01981256456860    1.05426487647460
C         3.84323577825077   -0.69900115685278    3.08263216217339
H         3.74752603141114   -1.74278397741477    2.82767057494767
C         3.96320353231841   -0.30645390506902    4.40202456700142
H         3.96019560042500   -1.04789462148825    5.18368883205419
C         4.08563282329675    1.04734371599011    4.71491380190537

