67
CSD_code = HUXTOL | q = 0 | S = 0 | Stoichiometry = C27H36ClN2Rh | MND = 6
C        12.54261480574443    2.64118708019410    9.79708774664915
C        11.27467840818720    3.01927071475973   11.80056390311302
C        10.00357141893824    2.68675315565445   12.26390149321134
H         9.55461560730565    1.74621384407935   11.97659015797974
C         9.31164518805508    3.56387944239836   13.07774413028097
H         8.32281602664709    3.30101956868838   13.42409229251550
C         9.87551873186801    4.77676048243950   13.43900444401607
H         9.32694934370395    5.46133916294925   14.06898864605017
C        11.14784635368453    5.09992017642969   12.99946741545480
H        11.60370760101006    6.03271229053896   13.29693542490401
C        11.85453477905980    4.22768159950394   12.18644244726000
H        12.87166753755911    4.45518728432275   11.90017558908174
C        11.81745792108907    0.76198233656813   11.21597019466880
C        11.47557330501219   -0.12074421751667   10.19385071964459
H        11.36444937615235    0.25439730009767    9.18747510520430
C        11.26871995980958   -1.45847010152872   10.47223328889756
H        11.00255482782945   -2.13458648908563    9.67302013809619
C        11.38598375011281   -1.92910427685924   11.76936656307688
H        11.22146453143299   -2.97395808856807   11.98356276861133
C        11.70604733779144   -1.05069762757489   12.79223683000297
H        11.79270187373057   -1.41043200050053   13.80657068385437
C        11.91928776752741    0.28732803336306   12.52343101355046
H        12.16987262354702    0.97514059738029   13.31768318208121
C        14.45202476412573    1.11746955749872    9.99641872650257
H        13.91941389409831    0.86842963676710   10.91496455766446
C        14.80119892008702   -0.20856889884318    9.32812694694845
H        15.34840183545920   -0.81938827450418   10.04313160650248
H        15.43074899004363   -0.07313450366486    8.45449178386446
H        13.90026560718006   -0.74690226172693    9.04387923720223
C        15.70736419360064    1.88572156976565   10.43606700262581
H        15.46640922793971    2.93646740529884   10.58219704891503
H        16.51147759118923    1.81004270251473    9.71242606295309
H        16.06439394172549    1.47739975321356   11.37903726395546
C        13.83896686260176    2.33719295423935    7.82466226703222
H        13.25767975047282    3.26392389913942    7.65433575142837
C        13.30222501534288    1.27514995589548    6.86004526042017
H        13.91484052316887    0.37895403530542    6.85827028556729
H        13.29478228767620    1.68116978117766    5.85139641259224
H        12.28285190048329    0.99826146141462    7.11984678467094
C        15.28734393375209    2.68533701624091    7.50818442328752
H        15.62956300767110    3.47110075915529    8.17408811774439
H        15.32740288793677    3.06458896348415    6.48914232319007
H        15.95111652020347    1.82873210686618    7.57079236408631
C         9.85642136389414    4.03991701991906    9.07483543079572
H         9.58579899949518    3.18272150990206    9.68630012488773
C        10.48543939891433    3.76307401311587    7.85997734265245
H        10.62977861862355    2.71196840172164    7.60727727326086
C        10.44287663787634    4.65094208592160    6.63597249149543
H         9.46967162137136    4.53735206171279    6.14381221816626
H        11.20088488031625    4.29261187311836    5.93347336817975
C        10.70792106501771    6.13692440977061    6.93997859494182
H        11.14167187001877    6.60455110057872    6.05327830157908
H         9.77067620922713    6.65372039775996    7.15161030543214
C        11.64872695044003    6.32402868881740    8.10810687046100
H        12.64772189650356    6.67170031367421    7.84819595544446
C        11.22176657161111    6.48603602070269    9.40467503148133
H        11.89703579811476    6.97490950360268   10.10775982137758
C         9.77904363452872    6.46337823105497    9.85150986270833
H         9.29317376202842    7.39654066171324    9.54412845026286
H         9.76350084714471    6.43263286140017   10.94335307561851
C         8.98709693618133    5.25625226363367    9.31294536395258
H         8.21419998105225    4.99773661445726   10.04011868706715
H         8.47946780903256    5.51737172782804    8.38207051060879
N        11.98386806112787    2.13749093188502   10.94785656291269
N        13.54826070513289    1.97438082114759    9.21926638012822
Cl       14.11182758900340    5.11161442509238    9.77672163574592
Rh       11.95141806277698    4.45101617449153    9.22247793548615

