20
CSD_code = HUXXON | q = 0 | S = 0 | Stoichiometry = C5H9Cl2NO2Pt | MND = 5
Pt        3.47090222390576    5.55459605750125    4.33877624872933
Cl        1.54826219554167    6.57828439062232    4.78767661574675
Cl        4.45777195287208    7.54828019481876    4.08416850480600
N         2.47284706073052    3.65425760574971    4.70098838990781
H         2.05166986342500    3.73706220872779    5.63208181662157
H         1.70014650936889    3.49886092222311    4.05475838608529
C         3.43317518268113    2.55197631721530    4.69761344349958
H         3.59554332589703    2.19427519814655    3.67658849000480
C         2.92188525532165    1.39033495355579    5.54470364794670
O         1.98438093764345    1.47576618236638    6.28866967402479
O         3.64905999843149    0.29031649674537    5.37637102672909
H         3.33019091834120   -0.43252265803216    5.94142628389955
C         4.76548786347672    3.05239771077259    5.29035769216941
H         4.63229975879178    3.22317535098307    6.36252006698703
H         5.53220684417910    2.28291863367410    5.16719768592380
C         5.22047430252841    4.34199225824680    4.63971453356417
H         5.96421644265167    4.89311819320809    5.21022465165638
C         5.09263946724705    4.60572075317351    3.28574780371884
H         4.69408808133000    3.86433143330616    2.60222914252450
H         5.73105181563551    5.35395779699637    2.83408589545380

