126
CSD_code = HUXYOO | q = 0 | S = 0 | Stoichiometry = C60H57F5P2PtSi | MND = 4
Pt       11.25626003020679    3.78749929726916    3.62746725030897
P        13.26228566967717    3.40956621089947    4.65265979529028
Si       16.55566134375855    2.25506404386836   -4.93147485376513
C        12.16812382337174    3.52521719534781    1.87265352383738
P         9.27775008567350    4.21650300103177    2.57403697239389
C        12.80118723863700    3.35780027268617    0.84125005317507
C        13.50082492013602    3.16029997608963   -0.29166114082257
C        14.15372542344562    2.96981698461386   -1.30630304372851
C        14.87963262878610    2.75506722894141   -2.41680606062290
C        15.54277143825769    2.55421439177686   -3.42032109550259
C        15.40237332905602    1.74825165549035   -6.37003688513604
H        14.68077774803616    2.54591816118733   -6.55219147541915
H        15.97467442149294    1.63502507971443   -7.29234936362126
C        14.64732904493104    0.45526834408358   -6.09011516219871
H        13.97580526611508    0.20724467614395   -6.91136360877810
H        14.05687786838587    0.55135657608964   -5.18184865057464
H        15.33936671071226   -0.37305348597446   -5.95680367181113
C        18.41996054305802    4.34030157705102   -4.29990789416850
H        18.90305174796049    5.27708101844498   -4.57564292112404
H        19.19566448218649    3.59971825531673   -4.11941470983521
H        17.87812545783679    4.49473269145125   -3.36961783128353
C        17.47025310969980    3.86966877166751   -5.39385203407208
H        18.03114866778041    3.73558672028582   -6.32031566712316
H        16.73892493775114    4.65543138315654   -5.58846365133090
C        17.80174011939656    0.85578659018467   -4.52991648643337
H        18.41236676625614    1.14990534883078   -3.67493142150831
H        17.25576638198229   -0.03589367333268   -4.21820121812641
C        18.71640009876055    0.49815044048859   -5.69699871383131
H        19.40503593364630   -0.29986218873543   -5.42039186687579
H        19.30566627047580    1.35979759428079   -6.00401894480322
H        18.13605474650862    0.16019743500345   -6.55309681421600
C        10.35028481962190    4.01957904328766    5.44944691944598
F        11.09597340611301    6.22915409924001    5.75488405482591
C        10.40883265131859    5.16410624858774    6.23216979898020
F         9.90390244564284    6.40021664631326    8.20205306122632
C         9.80035351695575    5.27371093681937    7.47283696349794
F         8.45969611170348    4.28973056969154    9.16188890745797
C         9.07007349681643    4.20110282253611    7.96620811277737
F         8.25795408830591    1.99762957357979    7.68530254073333
C         8.97235523919202    3.03672128056135    7.21577880132869
F         9.53800331957655    1.82646609603863    5.27172079755995
C         9.61912575265262    2.97178426536257    5.99272862491342
C        14.42872688445075    4.61412320533585    3.96769186889506
C        15.78743759056897    4.39160434748682    3.79660859501746
H        16.22638038770342    3.45114565860284    4.09815517470163
C        16.57502148275510    5.37332995514482    3.22272814761766
H        17.63187153326703    5.19428120004885    3.08447800717760
C        16.02843896023214    6.58337177899385    2.81251518841963
C        16.88141424858602    7.62694050690039    2.16062566026776
H        17.92255385784618    7.52068533824769    2.45526218659009
H        16.53866150827455    8.62612923839077    2.41985068642845
H        16.82447570332912    7.52286112295650    1.07665756041676
C        14.66402273614401    6.79672137309571    2.98843996485459
H        14.22583538477263    7.73183802397352    2.67031018701036
C        13.86941505753097    5.82196195907126    3.55416183596646
H        12.80045003283975    5.98170931783274    3.68457359217845
C        14.06298310645779    1.79199913760965    4.51616509978990
C        15.08303721232767    1.41466500878039    5.38624418686426
H        15.39052823014592    2.08497760400188    6.17816041871776
C        15.68958463747977    0.18349727368809    5.24105492233831
H        16.48272484548108   -0.10614850887457    5.91606000677866
C        15.29402323537223   -0.69535391011184    4.23561893799873
C        15.95883565041530   -2.03016306124630    4.10212339338030
H        15.66352196840444   -2.52226392228590    3.17929030400101
H        15.68236863142873   -2.67152487105512    4.93898405421441
H        17.04185623322110   -1.92088717489812    4.11209139211422
C        14.26776204313316   -0.31390663050322    3.38044736115519
H        13.94608305789082   -0.98706329182892    2.59900647803014
C        13.65382010207804    0.91702580838752    3.51752334993623
H        12.85597939976585    1.21538230153997    2.84872793435451
C        13.24424612304147    3.72746547829376    6.43931531359223
C        13.60858503465798    4.95459644325951    6.97992016431382
H        14.06655742498947    5.70517650301840    6.35094008213026
C        13.36686337146942    5.21984443278202    8.31487401220865
H        13.64123794925421    6.18098193727864    8.72519159395627
C        12.75092223450890    4.27944655284920    9.13296619861678
C        12.42497479892512    4.60553615573513   10.55625264668888
H        13.18850236222357    5.24400647102853   10.99486030104166
H        12.32796657333599    3.70180099483029   11.15292924642463
H        11.47658883696795    5.14254810825228   10.59925151757782
C        12.40826991881174    3.04496386202204    8.58897383818148
H        11.93586980779023    2.29991007412582    9.21340677315804
C        12.64576677990273    2.77148487395846    7.25783090200046
H        12.36097191772978    1.81565765062464    6.83581464038402
C         7.85214118436477    4.27461473337484    3.69550119210997
C         7.68986195732784    5.40988892847324    4.48755379979624
H         8.30636732974401    6.28018453438785    4.30069117542906
C         6.76028008766260    5.42046688171703    5.50664699436112
H         6.64708780479562    6.30331943576287    6.11979967701337
C         5.97985856607128    4.29812675338267    5.76967951339268
C         5.02706382502636    4.28584472371436    6.92311865272723
H         4.17953814308555    3.63454832635497    6.72313878773238
H         4.66522691786973    5.28767154364945    7.14217181656448
H         5.53503549097206    3.91026219374578    7.81234972860035
C         6.13424702133780    3.17640336607658    4.96334336397600
H         5.53321678202267    2.29893526675547    5.15378301158543
C         7.06275741072426    3.15713895599155    3.93917009404771
H         7.18758858817485    2.26875058619295    3.33581360336997
C         9.14436853888454    5.74815049123406    1.61757170190346
C        10.31314966291525    6.36189843942491    1.17833198349223
H        11.26883281384715    5.91453117471024    1.42487539265797
C        10.24716399454115    7.52202208627723    0.43324804888459
H        11.15747485997194    7.99453446253161    0.09327729995454
C         9.01963790196016    8.09469426441955    0.11330139484185
C         8.96484184434871    9.35893402122223   -0.68687668277016
H         7.94191668448273    9.60856763962090   -0.95648228383399
H         9.55422100201305    9.25873993297250   -1.59671025362128
H         9.38177043374137   10.18504706327410   -0.11127582796980
C         7.85742128099304    7.47820228865474    0.56230625533056
H         6.89691898703557    7.91415009613737    0.32583589295156
C         7.91273342421037    6.31662312469792    1.30943064598504
H         7.00093122444881    5.85451633209338    1.66419315631189
C         8.90192075372549    2.86864665785468    1.42395976103821
C         8.13157405580345    3.01019639743394    0.27831522028369
H         7.71611484777464    3.97365435795425    0.01869691006488
C         7.90904159925368    1.91510473689035   -0.53663484811541
H         7.31255643823142    2.02957762412420   -1.43070824681874
C         8.44431998531537    0.67046814981506   -0.22708907288196
C         8.22395096884387   -0.50599469893072   -1.12647477189146
H         7.36668592781011   -0.34715372380737   -1.77584445666396
H         8.06628971664854   -1.41236815779323   -0.54573934939050
H         9.10241202534599   -0.65965111705992   -1.75372252678044
C         9.21587383036887    0.53958931180368    0.92434358317861
H         9.63967382424965   -0.42255358326183    1.17363369835892
C         9.44755112639158    1.62670758441307    1.74073633063384
H        10.05500318003206    1.53108733051746    2.63781491746087

