128
CSD_code = HUXYII | q = 0 | S = 0 | Stoichiometry = C62H57F5P2PtSi | MND = 4
Pt        1.55690526597886    1.22096844735104   13.21894725168326
P         1.53139177239079   -0.75881325235284   12.08091293097397
P         1.62186553733132    3.17527782603608   14.39269236576610
C         1.46822082737286    0.15261406345832   14.89918851398956
C         1.53285143015736   -0.65179659822098   15.81819300490064
C         1.59693771944643   -1.53434270824875   16.82780595646163
C         1.68285974443610   -2.37269230532101   17.71620421295359
C         1.76104281346872   -3.28086418423110   18.68933222567571
C         1.83658304066363   -4.12482681365088   19.57348878961816
C         1.90905074147487   -5.04411535740958   20.54761041467721
C         1.97072008651918   -5.88043922022827   21.43388631823681
C         2.66529152574308   -1.91795034519075   12.88606633497100
C         2.37205743569966   -3.24613287223975   13.15894525569990
C         3.26099415588020   -4.00524782435271   13.89791511002145
C         4.44617910516461   -3.45975166410316   14.37653795792632
C         5.36982717638167   -4.27662786629053   15.22491917312854
C         4.73614543253216   -2.12931687539220   14.08823448506817
C         3.85268315075237   -1.36175268248764   13.35899321845406
C        -0.07682877071243   -1.57878634113080   11.99807467201144
C        -0.32774085312615   -2.62214146162917   11.11212621983074
C        -1.57542152246227   -3.21361745306563   11.08485239675050
C        -2.59271604285213   -2.77676177670226   11.92836095424992
C        -3.93694128614100   -3.43521042039295   11.90260401005444
C        -2.33293673787523   -1.72928562902249   12.80548272609061
C        -1.08753032939831   -1.13317049933539   12.84179314138046
C         2.05563692731703   -0.65857513669319   10.34726995274250
C         1.15675822867781   -0.11377692661864    9.43199653841274
C         1.56390094847807    0.18042258767225    8.14724929880011
C         2.87694979621074   -0.05017586560246    7.74727210035668
C         3.33842467674888    0.33946990943561    6.37865605591274
C         3.76151884651965   -0.61392036962246    8.65974951116851
C         3.36247908502146   -0.91260675008441    9.94907929800334
C         3.13379600681721    3.48596404979800   15.33591067909326
C         3.99875748247218    2.42302910060738   15.57380663932037
C         5.16344614815753    2.62607177183496   16.28678344321853
C         5.48936681764953    3.88857903351524   16.77310503117403
C         6.76416545582283    4.09910531348931   17.52942884356041
C         4.62209230440069    4.94661115894991   16.52360110543750
C         3.45520128915796    4.75430842855811   15.80885292476287
C         1.44340767917194    4.66433817086313   13.36989993735813
C         2.54171998570758    5.06785040794688   12.61304845074953
C         2.40495137231029    6.05452404906038   11.65830682905698
C         1.17082103917061    6.65470797428277   11.42755815913952
C         1.00293743462538    7.67084261215591   10.34249483448800
C         0.08465492673130    6.26163976782148   12.20159023338282
C         0.21211061896483    5.27374952534262   13.15970421802715
C         0.24135719209851    3.24688644615456   15.56239102302832
C        -0.92946897753641    2.62046248641787   15.13993904019071
C        -2.04129871783674    2.60427431444987   15.95544913078265
C        -2.00464656580278    3.20231414883188   17.21232823883580
C        -3.20290484474640    3.15433107157011   18.10870503702953
C        -0.82884767092592    3.81548883403098   17.62806908283872
C         0.29001860560104    3.84142565176570   16.81489242420840
C         1.69643550095018    2.25478985850420   11.46139227351025
C         2.90758753685853    2.36141450612039   10.79166339457513
C         3.06466214710805    3.03912256822575    9.59365236567781
C         1.96438594980200    3.67172141947171    9.02926094898600
C         0.73258234405907    3.60372099742029    9.66739521254738
C         0.62511065257727    2.89325545488866   10.85254614066808
F         3.98835389500494    1.76505677786299   11.35221093497689
F         4.25795136848246    3.09636763503850    8.97407443643463
F         2.09083912805526    4.34717626371828    7.87337802312501
F        -0.33202377581895    4.22578184990134    9.12802690652859
F        -0.58401641690917    2.81662147013960   11.45884711182705
Si        2.05775275853305   -7.13833208219638   22.78120423241800
C         0.57672416957163   -8.33175293251814   22.55287998763635
C         0.50774804647047   -9.42859594732200   23.61077232908654
C         3.72179221239287   -8.07038912994180   22.64462267336025
C         3.87762464297779   -8.80728277420875   21.32046009155701
C         1.96629714109531   -6.24423458081864   24.46861987440501
C         0.65807941424126   -5.48862600506883   24.66459161252674
H         0.64539568772335   -4.96919846386806   25.62203897790058
H         0.52334998164255   -4.75335896298061   23.87464187795504
H        -0.18834767569287   -6.17099935284215   24.63849933957388
H         1.44475402349165   -3.68047478063559   12.81322533252621
H         3.02359429427565   -5.03552727915971   14.12169004159915
H         6.38963414597856   -3.90458926833216   15.16305891197004
H         5.05136084621377   -4.22177206372760   16.26651275367831
H         5.35308444574612   -5.32187488370618   14.92501486209322
H         5.65295466836968   -1.69201095761837   14.45705136645346
H         4.06099146073242   -0.31502706572147   13.15612187074943
H         0.45265983113413   -2.95781741593601   10.44186020000155
H        -1.76795635657849   -4.02417699409432   10.39614688145678
H        -4.71934814499887   -2.73118594417496   12.17557274302889
H        -4.15281670503895   -3.84184141287583   10.91742127796667
H        -3.95943221448729   -4.25721562203542   12.61894492185303
H        -3.11657955605948   -1.37809486265395   13.46119851810345
H        -0.87874016858960   -0.31569499943182   13.52408967513525
H         0.13808962908335    0.08377379866584    9.74120652523107
H         0.86106202099886    0.61008600934606    7.44755800988053
H         4.09806176296579   -0.34733233826374    6.01245516076041
H         2.50795715723890    0.36190403936474    5.67716794024765
H         3.77848521492148    1.33686374540940    6.41382796927815
H         4.78251526842884   -0.80289030857707    8.36090221302057
H         4.06760252538615   -1.33219314900954   10.65283975169073
H         3.74234578519436    1.44015187699733   15.19411465296713
H         5.83354655311587    1.79837994889411   16.46931063296989
H         6.77884179456231    5.07426568360126   18.00938647565698
H         6.89031204182654    3.32960883411030   18.28861413045550
H         7.61455077652172    4.03794277150453   16.85016624790453
H         4.86626977502542    5.93363035164501   16.89054247553544
H         2.79630422152818    5.58818320379572   15.60510878000617
H         3.50166918710839    4.59400577422874   12.77512695649973
H         3.26157333534506    6.35382372724496   11.07108619249533
H         1.95400164533263    8.13072445866941   10.08560746805778
H         0.60768709439496    7.18723138284955    9.44836604223098
H         0.29951265600748    8.44552845058479   10.63965413279972
H        -0.87860433435585    6.72221758091722   12.03594792244805
H        -0.64762180124430    4.96368260345960   13.73708215156405
H        -0.94776707607453    2.15104183737781   14.15936888005698
H        -2.94832291682173    2.11955843200678   15.62361540779986
H        -3.16907617221466    3.94938021391557   18.84947373474164
H        -4.12148679200501    3.24412469546905   17.53299086436212
H        -3.23023606962828    2.20041215982049   18.63622542093492
H        -0.78705182008264    4.27604372160180   18.60503248572341
H         1.19994239347840    4.31248796531883   17.15855283874481
H         0.63056072931828   -8.79191650433243   21.56509360928567
H        -0.35294704886721   -7.76097184021341   22.56990595423838
H        -0.35060736764746  -10.07789697821070   23.44053037167744
H         1.40489744921947  -10.04386565165383   23.58875675720935
H         0.41321270310097   -8.99995876786212   24.60636313093658
H         3.82304429988152   -8.78391094185054   23.46410898595299
H         4.54324080230240   -7.36056559858821   22.75240611404693
H         4.84495800615722   -9.30463316774736   21.26007325949064
H         3.10179714075692   -9.56072667903958   21.20588426790870
H         3.79787010316939   -8.11152826922653   20.48834266267276
H         2.79597280256504   -5.54054786308930   24.55012360274512
H         2.09019373359361   -6.96082818034313   25.28238601599783

