136
CSD_code = HUXYEE | q = 0 | S = 0 | Stoichiometry = C63H63F5OP2PtSi | MND = 4
Pt        3.38331319096396   16.93749436948927    3.52418822794002
P         4.50676220409902   18.71170214342024    2.62465893529656
C         2.93111633438558   16.38198946549995    1.66169211539848
P         2.25511987632590   15.15257708717360    4.38977006841569
C         2.77491018176844   16.12085672838880    0.47908363857133
C         2.59941012679858   15.82366685077256   -0.82364655180769
C         2.46828628018322   15.57429263309132   -2.00989781499923
C         2.30672562583519   15.28599389815332   -3.31574556892899
C         2.16922017172618   15.04476613834407   -4.49414655598897
C         1.96464190001063   14.70960920019663   -5.89130265676428
C         3.31928341904013   14.42465619668752   -6.55420005707933
H         3.80231721638975   13.59071235777315   -6.05056397296412
H         3.96238016423143   15.29907576039708   -6.49258782159633
H         3.16281249196234   14.16068755021296   -7.59698513938589
C         1.24788204792806   15.87237858586624   -6.59171317355181
H         0.28996051245671   16.05127411593446   -6.10990605009794
H         1.07434796005692   15.61493028115258   -7.63354101317520
H         1.84967727296448   16.77617075134519   -6.53650016442971
O         1.17031638901531   13.54219403020111   -6.04124885790860
Si        0.14556657186787   12.78585415451186   -5.02307153526433
C         5.64068905424469   18.08020860356819    1.36124448108892
C         6.12527144123508   16.79087710084368    1.57217032214300
H         5.82833722722161   16.25509627092211    2.47087741550600
C         6.96320348163664   16.20534556021721    0.64667970843062
H         7.33538111248260   15.20477156772061    0.81366311223674
C         7.32492650884916   16.88709746076549   -0.51180241664469
C         8.19601956787943   16.23069564624108   -1.53740036054008
H         8.71938249136844   16.97100037586879   -2.13756288415112
H         7.58213556625583   15.62569911023712   -2.20541055596680
H         8.92475433609723   15.57512417383376   -1.06608239183656
C         6.83485026565457   18.17172886690492   -0.71314575229541
H         7.10509557988280   18.70845618068157   -1.61153393185161
C         5.99871379024236   18.77001937356350    0.21201113272185
H         5.61498963340672   19.76452525709304    0.03334043317388
C         5.55857334048269   19.59830787838667    3.80766250350726
C         6.90484514814999   19.29417631389714    3.96977712583271
H         7.39225005696637   18.62515951656635    3.27430420303751
C         7.61166862311206   19.83153582577608    5.02923176911513
H         8.65481483296247   19.58015167667979    5.15599380592564
C         6.99485267506918   20.66997431763518    5.95089811923378
C         7.74831056811069   21.18537806793448    7.13616604138345
H         7.30946361422854   22.10801032801729    7.50822917244015
H         8.79299229795895   21.35970243509914    6.88896437830387
H         7.71396326453249   20.44759123083085    7.93879257960970
C         5.65152151888326   20.98631346979153    5.76976209527228
H         5.15921772513269   21.64309524054101    6.47293467475352
C         4.93795412989901   20.45373700190088    4.71606788018272
H         3.88847080466627   20.68938583049417    4.59120582917070
C         3.54695879153776   20.02360550254044    1.82856079338924
C         4.08337504800642   21.28925803837334    1.60771810714489
H         5.08950986365038   21.51290920714534    1.93714474994528
C         3.32576600705212   22.25685482773009    0.97860179578289
H         3.74583820714486   23.23805854849829    0.80733645995117
C         2.02506270141898   21.98826392990426    0.56108904400485
C         1.21068482002732   23.05557412432458   -0.10175684351443
H         0.36477987717632   22.62661117049469   -0.63259313097204
H         1.81752458391750   23.62468106573911   -0.80296242862654
H         0.82769730062263   23.74951273527669    0.64701514184077
C         1.49627825948548   20.72422735408015    0.79342063970109
H         0.48687991282533   20.50240797197540    0.47824780741106
C         2.24648488111310   19.74895659236190    1.42252191748652
H         1.83633359417711   18.76188240150176    1.59925119813337
C         2.85384936515609   11.11346967983686    4.49159515413093
H         2.56319605974241   10.28125292438287    5.11730305765655
C         2.80475228388156   13.46691142571942    4.01852864836494
C         2.43711282825287   12.38994236369714    4.81902426080571
H         1.83350347502548   12.55506014011334    5.70175373663036
C         3.64253681494675   10.88568471660803    3.36971550687901
C         4.10312264289001    9.50575616054632    3.01561501117484
H         3.63034796275901    8.75972448089538    3.64913080493733
H         5.18323660013140    9.42827156858759    3.13783228085001
H         3.87088201780841    9.28272665950465    1.97567801097051
C         4.01257753318686   11.97088856974329    2.58081794528553
H         4.62965591477710   11.80682261351985    1.70917344693983
C         3.60171632465218   13.24986464129521    2.89921253759948
H         3.88864827100806   14.09378715487100    2.28384661574678
C         0.53732734466755   15.25447747756810    3.82369693119383
C         0.07465243265845   16.53338504612469    3.52187505425981
H         0.74850769897179   17.37996332463189    3.64227265833524
C        -1.21994137105653   16.71695775097964    3.08246824368361
H        -1.57544915884381   17.71109815483522    2.85252900385480
C        -2.07485295460373   15.62964869859780    2.92605372675316
C        -3.46828710191345   15.82704356061187    2.41485819948721
H        -4.11956684303002   15.01647241532836    2.73250765376018
H        -3.46034269722057   15.84696208554061    1.32464878850430
H        -3.87973327138682   16.77131611330466    2.76411406926271
C        -1.60147506742764   14.35706737059430    3.22415574631366
H        -2.25551639367898   13.50529699060633    3.10166729089378
C        -0.30691421563936   14.16346856951209    3.67051973928293
H         0.04867719111882   13.16657466596500    3.88965449182385
C         2.14341243489611   15.17832459525048    6.20137656572044
C         3.28187286164387   14.83059722344231    6.92589114996278
H         4.13188979700377   14.40595129758899    6.40639504312539
C         3.32944906216191   15.03615625234614    8.28924707524071
H         4.22024335265084   14.77042392590311    8.84067382418862
C         2.25011865644390   15.60289878836199    8.96083857522463
C         2.32927947641417   15.89674960623723   10.42576747177885
H         1.35937337279815   15.77183368982555   10.90169463201252
H         2.64267628883699   16.93087274423200   10.57419207813362
H         3.05432505543558   15.25174315609907   10.91612086753721
C         1.11025296466119   15.92797851757592    8.23431901970970
H         0.26344703102978   16.36526528714993    8.74341349959072
C         1.05373560121199   15.72528627345054    6.86807165564605
H         0.16905516841811   16.00589004408497    6.31372514329468
C         3.90903534985303   17.53720669431917    5.41091877093739
F         1.82861699662463   18.54364095681744    5.84051756942743
C         3.07548539042110   18.23705016058602    6.27198545513508
F         2.59594449391571   19.29359534336887    8.34984119826099
C         3.45077010702680   18.63491630188658    7.54564884830278
F         5.12457016398059   18.73512328112892    9.22121413482019
C         4.73320505713597   18.34828931779490    7.99355124310893
F         6.85613712844267   17.38686185362941    7.59172482201217
C         5.60918892061586   17.65947194241225    7.16506707753047
F         6.02798858217035   16.57247573985386    5.11538226844141
C         5.17548739750446   17.26454641165833    5.91028870231045
C         1.07895381422555   11.94649796386751   -3.57402199636554
H         2.11286777283583   11.76912500817397   -3.87622636677653
H         1.12799014650960   12.62722744730567   -2.72255772758800
C         0.47565151586593   10.62379783307172   -3.11121689323248
H         1.04417855462868   10.20922694075223   -2.27977763497403
H         0.47758751606509    9.89892993143881   -3.92115961206530
H        -0.55178408914826   10.76140667203049   -2.78464306858380
C        -0.63480455483455   11.49108376799451   -6.18627190424613
H         0.14219155304069   10.82824539406410   -6.56762761945733
H        -1.32138724576398   10.86667465406939   -5.61571528232382
C        -1.38080859977709   12.10181238673567   -7.36717226947255
H        -1.77474988078070   11.32667133698791   -8.02335445897761
H        -0.71221925421981   12.73454789302290   -7.94440866447115
H        -2.21294650906962   12.71045575065540   -7.02178887011174
C        -1.17935458735195   13.98570943174568   -4.32797799020485
H        -0.68425005598136   14.77981465480763   -3.76456860232732
H        -1.69349416555010   14.47405057107647   -5.15880807037715
C        -2.22135976555251   13.32712588092994   -3.42931549283722
H        -2.96563813376938   14.05195627326720   -3.10178976344481
H        -1.74929937904782   12.90475471348530   -2.54613144589176
H        -2.73428150236385   12.52809032021677   -3.95925136626222

