47
CSD_code = HUXZOP | q = 0 | S = 0 | Stoichiometry = C15H26Cl3N2V | MND = 5
V         2.91222001085379   11.19785799999838   16.16120955637910
Cl        1.69759628594033    9.80638734637220   17.05660285314247
Cl        4.31848022615533   10.77534422807946   14.63348376592494
Cl        4.63194788679709   10.72369924081391   17.62185105712844
N         2.53769049561261   13.21260882003887   16.64538991002411
N         1.38166717113960   11.59062289891449   14.55708940127984
C         1.17969770617077   10.27337951404715   13.93666442230807
H         0.68282020521488    9.63012623588337   14.66695875221524
H         2.17144920326501    9.86172298592177   13.72844144452652
C         0.38916957762035   10.28940172540412   12.62716240823682
H         0.35764030648656    9.27299797385037   12.23300389602615
H        -0.64221077504391   10.60807998843765   12.79237344503605
C         1.06876727910458   11.22487980787353   11.63561930606646
H         0.50673531778120   11.27193376699328   10.70086672249259
H         2.07056974075270   10.85328231959833   11.41138988722321
C         1.16394807396405   12.60962063643158   12.26483785873043
H         0.15432263869497   12.99204409176664   12.41737313483084
H         1.68262482457897   13.29726934602463   11.59429614151965
C         1.94983463724506   12.53165699167016   13.58457967075485
H         2.94413083164424   12.14556117503226   13.33065427880294
C         2.12095124758598   13.91266752817408   14.23091019192566
H         2.58358485853253   14.57103123212709   13.48668420540830
C         3.05025554251849   13.91399222068169   15.45570370143068
H         4.01753791120881   13.46919015482407   15.19335922912221
H         3.22591278809242   14.97127541893234   15.71778008340474
C         1.15715457100138   13.63741683204777   16.93292405344974
H         1.18845153442988   14.71655527594882   17.17403129094087
C         0.61214580634315   12.92349418722835   18.16933195154666
H         0.67892303658580   11.84226465627090   18.03513215341157
H        -0.43637306400953   13.19628681456321   18.30567335535510
C         1.43578499695340   13.32574990322385   19.38648187426232
H         1.32897602872239   14.39854829892155   19.57324655328294
H         1.08717686710823   12.79450094705916   20.27222648718596
C         2.88955402131092   12.97677053754830   19.10235865856404
H         2.99270659712930   11.89266273424594   19.02196180906498
H         3.53820145624779   13.31877573423354   19.90959186046227
C         3.36293780725459   13.61612105008228   17.80046784431387
H         3.32526102498192   14.71296457651419   17.90362180283438
H         4.39568735315778   13.31283958009118   17.60786656849989
C         0.13205861407713   12.08999068758733   15.13405640091712
H        -0.17021403512735   11.39203555342729   15.91926599860712
H        -0.66283624801778   12.10937549667891   14.37620524066275
C         0.24012139475499   13.50387121742998   15.71197482239467
H        -0.76542431000705   13.80436806819011   16.02836607991889
C         0.76052945943097   14.46200576135986   14.64639311904873
H         0.08105278564351   14.52241662785183   13.79758701795864
H         0.86118031011225   15.47075181160403   15.05414973337717

