27
CSD_code = HUYHUE | q = -1 | S = 0 | Stoichiometry = C9H7N3O5S2V(1-) | MND = 5
V        -1.80636621473461    3.13205912131178    5.77631987917923
S         0.34299517283809    2.84247149331458    6.71116872544509
S         1.97588083597192    0.39575487198645    6.96341981943514
O        -1.42063285008342    4.61704481789334    5.74038848219500
O        -2.66825829370128    2.76238086875910    6.99221335115793
O        -2.82740559440889    3.04565894236494    4.23593425349157
O        -6.39351437761043   -1.81528048950117    2.86753097491198
O        -7.60174698902191   -0.21250686382500    2.09007551506288
N        -0.28205714055230    0.45306283567933    5.67449881743364
N        -1.36892403261098    1.08588847009179    5.18306096452063
N        -6.59803971649042   -0.62593203947774    2.65760418893895
C         1.70482453129855   -1.30464056681655    6.36399840414022
C         0.53682092942776    1.18638220725657    6.35861965966655
C        -2.29988997213245    0.31102629254143    4.74221815203727
C        -3.50473899729712    0.77563921695943    4.12732889475574
C        -3.69790219482026    2.18416047422067    3.90669808281431
C        -4.89535173314169    2.58695126643789    3.24708487459180
C        -5.83618803050906    1.68097604515303    2.85358272565320
C        -5.63078751183020    0.30916746651149    3.08138784178105
C        -4.47087073365458   -0.12809749450666    3.71169981760893
H         0.77632427779474   -1.67779577169996    6.78154809608783
H         1.65272577576076   -1.29447762069530    5.28095378697720
H         2.54908899154369   -1.89318590937418    6.70617168073290
H        -2.16140873877559   -0.77077090449158    4.83459989680230
H        -4.33267190307286   -1.18844525982647    3.87004184558701
H        -6.74739398927904    1.99064725938078    2.36364656926246
H        -5.03411150090842    3.64606127035198    3.08440469972948

