35
CSD_code = HUYNEU | q = 0 | S = 0 | Stoichiometry = C14H17Cl2NZr | MND = 12
Zr        1.13918838256957    3.01934259996766    8.41806096050806
C        -0.70250919721318    2.30000347535928    9.81980138572488
C        -0.40218891737691    3.62423080768200   10.24450857972396
H        -1.07953290798169    4.46929219590063   10.19845297298956
C         0.86135008498037    3.60802122029536   10.86795553142519
H         1.33523412041507    4.44702308435982   11.36298048640435
C         1.35731221959925    2.28417949900812   10.82930723762001
H         2.27061074610478    1.94009528655706   11.30000149893834
C         0.39305134875895    1.47176076511973   10.19714958779182
H         0.42079091785835    0.39147843273766   10.12272800916551
C        -1.89801784948937    1.89188533867127    9.05397648462282
C        -2.32582827767444    2.67727852717470    8.05238915889634
H        -3.20093074749516    2.45375387367582    7.47038018108552
H        -1.79825872412515    3.58942067073408    7.80632149563291
N        -2.41111581390950    0.63502909139209    9.35890773152964
C        -2.58495124223321    0.29108330692308   10.75502569441578
H        -1.83719287636801    0.79554062626420   11.36091317769833
H        -2.47446388359730   -0.78792211662574   10.87738362479132
H        -3.57943991384106    0.58021711701752   11.11785077124772
C        -3.45079012437892    0.10145721226181    8.51183512014460
H        -4.41297562384098    0.61258491735560    8.64372698628410
H        -3.58497884913965   -0.95257707872230    8.75470907584782
H        -3.14813291627360    0.18282243523634    7.46898303005188
C         0.44945987012838    2.07357744157827    6.25381157715003
H        -0.44395307556369    2.37654780673174    5.72047794947532
C         1.74974569489999    2.59695762031506    6.04739434447828
H         2.01300661334421    3.38746858639200    5.35346869755870
C         2.65596758698571    1.82625201744356    6.80619495596962
H         3.73469523624287    1.92200094829215    6.79339388080503
C         1.92139740599819    0.84046080941625    7.50100078057302
H         2.35029302683276    0.02751987190568    8.07562559180726
C         0.55702364250542    0.98048703166674    7.14415533057313
H        -0.23821608543260    0.28948169725370    7.39448902503068
Cl        3.23525860379563    3.96140917489726    8.88352830504483
Cl        0.38779152491363    5.06493570576643    7.58751077898970

