54
CSD_code = HUYQEX | q = 0 | S = 0 | Stoichiometry = C20H25Br2N5ORu | MND = 6
Ru        4.26573043308048    8.48762324648268    1.94991193381059
Br        1.74695308228764    8.63897028371220    1.54066392200477
N         4.48862040331784    6.70180849876844   -0.25254831378229
O         4.70147000346608   11.45084950650836    2.03130699365936
C         4.17993756093133    5.85690621778405    0.79976795754761
Br        6.75904860308347    8.09498069176085    2.38667607370506
N         4.91286917244065    8.58498840019598   -1.20595257486455
C         4.02331394786533    4.47757262444247    0.74845777289787
H         4.13318184560132    3.93900607573840   -0.17719251688530
N         4.04209502947772    6.52941567950181    1.94228521149168
C         3.71919131244998    3.81804209351391    1.93119246434510
H         3.58932045473679    2.74759017367868    1.92615511773061
N         3.67816758253002    6.78056679642895    4.14446435454949
C         3.58286836755199    4.52006399628680    3.12059386395141
H         3.35040085251203    4.01503808070143    4.04247623617363
N         3.76774538894460    8.70240968657538    5.11081278925264
C         3.75653348494846    5.89767364515803    3.08143865967296
C         4.58271627739262    8.05552292971766   -0.02257973876601
C         5.03031936278744    7.60200936023470   -2.15988931505686
H         5.30119985734128    7.81969396150475   -3.17226667811247
C         4.76433188088741    6.41816934214229   -1.56910673940662
H         4.75508504214696    5.42565805481759   -1.96769075827236
C         5.09012508840098    9.98851709748783   -1.48496258179499
H         6.08596476787250   10.13560419610332   -1.91570370129186
H         5.04106163099529   10.52394579108970   -0.53460921270979
C         4.02290003795664   10.50959365413451   -2.45206927639416
H         4.25679411116225   11.55042839569846   -2.68183561071669
H         4.08356558580013    9.94229473968168   -3.38428480735759
C         2.60012166649178   10.41879275800394   -1.89709170351124
H         2.42290959274326    9.42431547280400   -1.48313825322207
H         1.89912304735671   10.55697301057906   -2.72292868656445
C         2.31005915305938   11.45936795215188   -0.82448473629179
H         1.28103956705506   11.36462835941815   -0.48959635273914
H         2.46413916036461   12.46528767126362   -1.20949622298429
H         2.94977088725444   11.31602144920602    0.04171305481099
C         3.88678008009605    8.11951814835530    3.91330109662787
C         3.50136771641096    7.76514520874105    6.07919774461862
H         3.37230791645832    8.03307019380047    7.10778890584823
C         3.43802560021203    6.55686342277729    5.47969425871293
H         3.24560350857326    5.58576240880750    5.88457396717476
C         3.99331888178645   10.10126882558126    5.37618875001148
H         3.39071040090804   10.39207912780440    6.24090077644613
H         3.66114241110620   10.66917602883276    4.50380943126540
C         5.47872654596324   10.35834282286338    5.64847403148806
H         6.04930987788825   10.12123800162472    4.74755649256436
H         5.81030431996885    9.68158475521192    6.44077966386508
C         5.75944607126682   11.79879651385726    6.07041068696575
H         5.14761131030626   12.04851160239181    6.94131698419372
H         6.80655438354913   11.86358587927738    6.37245753638936
C         5.50390915810499   12.80776268899302    4.95805044685612
H         5.82146537993092   13.79956978657532    5.27085149300345
H         4.44883810318944   12.85684387300500    4.70201369489747
H         6.06101553720354   12.53484240429608    4.06571687002724
C         4.50848855479213   10.31600841391617    1.98732854416174

