43
CSD_code = HUYROI | q = 0 | S = 0 | Stoichiometry = C14H23NPS3Tc | MND = 5
Tc        1.78300456259819    3.25662760989205    3.00048430503641
S         1.20796428838120    2.02841506023505    4.82029242281773
S         3.81337103756309    4.26211933284630    2.86772744070102
S         0.55927183836807    3.02969558757730    1.10242577583365
P         0.62484667972545    5.17852896229413    3.65638260267244
N         2.82198913237334    1.45700193683506    2.33326386294528
C         2.06832053012313    0.43937298621252    4.48199982023105
H         2.45561449335952    0.07675124749708    5.43396974814312
H         1.32593696805703   -0.27324120825211    4.12058161562415
C         3.21008456120164    0.65550659972380    3.50338887528930
H         3.99669594865221    1.20035746082994    4.03142346812976
H         3.61831681502070   -0.31529637868359    3.17922579344886
C         4.02394534701659    1.83381857548207    1.57455778606412
H         3.69572037856943    2.26679455961912    0.62660175664050
H         4.62962312276186    0.93973169043730    1.35584991708268
C         4.87072829570871    2.87831269835111    2.28059140062826
H         5.59765966854295    3.30122415234506    1.58745489389084
H         5.40892405600288    2.48055980812452    3.14186598323657
C         1.92770789348560    0.66757617525253    1.47378452216451
H         1.13393412672874    0.26148702094595    2.10532953943150
H         2.47906486439580   -0.17429356702569    1.02495723469620
C         1.26360125583482    1.49443533928771    0.38683019925228
H         0.43756467544071    0.93671078545675   -0.05443278877962
H         1.94928534438921    1.78057003896237   -0.41184283962585
C        -1.18589854310156    4.95892851780782    3.82913919166966
H        -1.36386823926721    4.22902741225275    4.61687512998451
H        -1.55787112977856    4.56208702749917    2.88566315021597
H        -1.68942251650185    5.89382576393456    4.06598406625676
C         0.71211745958958    6.57498315128717    2.47339272470476
H         1.75553749615356    6.86900559522273    2.37536124742926
H         0.11538239395895    7.42306949822243    2.80275928264389
H         0.35236658237824    6.21321628173340    1.51139904650391
C         1.05930669184929    5.99548411740599    5.22952111290569
C         0.38751819878475    7.12068988381193    5.69508433570168
H        -0.42416932476137    7.54664779641994    5.12248912895353
C         0.75237337411003    7.70382915653537    6.89457834488668
H         0.22525081497784    8.57736712265592    7.25119741957055
C         1.79140822940848    7.17082606820986    7.64007368018544
H         2.07315625466694    7.62877788740336    8.57713021963645
C         2.46628062995127    6.05205015320180    7.18153622153336
H         3.27726884481805    5.63593593119603    7.76124359279948
C         2.10074195231367    5.46812001815692    5.98203814741806
H         2.61664494612869    4.59306214279429    5.60822062143773

