38
CSD_code = HUYSEZ | q = 0 | S = 0 | Stoichiometry = C11H19N2O2S3Tc | MND = 5
Tc        1.36012675508930    8.57725545607635    0.48321616515711
S         2.97110152513860    9.92898367738095   -0.39212585217403
S         1.98565614975576    6.67037439971766    1.55968979166604
S        -0.76671491709529    9.34424295328152    0.74491390337059
O        -0.80428602126672    8.57120920941676   -3.98616484619080
O        -0.80376709715276    6.81650964450523   -5.38742627101956
N         0.78380910083600    7.13220449481510   -2.21208841283511
N         1.78124790001761    9.58326040411566    2.37852406420281
C         3.44163159124018   10.91767040364856    1.08449370297052
H         4.37263904582762   10.50773790247023    1.47790582292568
H         3.63564036058283   11.93324295840561    0.74004734835208
C         2.31734211276920   10.92306518866568    2.10611475890089
H         2.66221425318575   11.39391667033260    3.04150224650218
H         1.50648014169032   11.53037412436290    1.69659809413303
C         2.41867267308905    7.32669520017130    3.22112583700680
H         1.58010444404424    7.12405090429374    3.88832695343016
H         3.27991465539506    6.75997277061535    3.57419379908393
C         2.76722768946696    8.80290198632758    3.13720381635513
H         2.88588203048340    9.21905440145766    4.15113440924230
H         3.72670910134527    8.88287416860462    2.62056540570581
C        -0.62215437554193   10.24001171041870    2.34434042839353
H        -0.52886328114418   11.30384691301041    2.12304931915748
H        -1.55644763955911   10.08513782642847    2.88352304275328
C         0.54143884153899    9.69915748601422    3.15730721886748
H         0.70624673437229   10.33121588976017    4.04542788559504
H         0.26492660588625    8.69816657991342    3.49708915074257
C         0.98160629513596    7.69792622939310   -1.20493087238265
C         0.46765666017881    6.56826813853404   -3.44164995875583
H        -0.03033884344286    5.60307807304439   -3.29522553760293
H         1.38413984994852    6.39879047447752   -4.01960805465931
C        -0.45515625186736    7.46422106440946   -4.27379354150392
C        -1.65921484926587    7.51237068539834   -6.30232208191455
H        -1.37897135866507    8.57081719647118   -6.30988528012051
H        -2.68982472762461    7.43087530344758   -5.94007277061924
C        -1.51072108602807    6.88371793215063   -7.67523013710368
H        -2.17211363921456    7.38294082544978   -8.37716171794690
H        -1.76740406016455    5.82882513142629   -7.63294488412288
H        -0.48603636898291    6.97853562158379   -8.02416294556154

