39
CSD_code = HUYSAV | q = 0 | S = 0 | Stoichiometry = C14H19N2S3Tc | MND = 5
Tc        1.89742885180904    1.12642069705433    2.22826290840554
S        -0.14141443325269    0.76416884657026    3.17924378178486
S         2.10937271377941    0.84541223702584   -0.02072966072904
S         3.75199889873182    1.25065133432363    3.54079768248355
N         1.49826405405180    4.21039573920118    2.04935437275288
N         2.14546370520127   -1.03898178533082    2.35500524352372
C         1.64183806286563    3.04868012682581    2.11404977161276
C         0.95480175476304    5.49204801241728    1.95283326033723
H         1.41698518554641    6.00083631582030    1.09760430761823
H         1.22081859950820    6.04968802733617    2.86031724277673
C        -0.55197937792233    5.49549838142685    1.78625701243715
C        -1.30605913352044    4.33309781725931    1.83550379496702
H        -0.82129968858182    3.37974052211737    1.99508523540318
C        -2.68129863105404    4.39255284888753    1.68148585156298
H        -3.25861806041124    3.48117793207483    1.72178822272837
C        -3.31263499397084    5.60693525537384    1.47917256986970
H        -4.38501925942551    5.64972744820500    1.35861820476315
C        -2.56218269942213    6.77016103472419    1.43131821149820
H        -3.04716588029399    7.72260603835122    1.27448464075203
C        -1.18921380664279    6.71433753536912    1.58363555813556
H        -0.60517881791775    7.62338996439262    1.54550935099042
C         1.33081662230306   -1.55756654978532    3.46031598571952
H         1.77813756153468   -1.21313098629870    4.39607260198783
H         1.34097134508064   -2.66011836474066    3.45998017127909
C        -0.10214487886430   -1.05399727548168    3.42949173766080
H        -0.58896500828952   -1.25565226928933    4.38353882685696
H        -0.69789228089145   -1.51193485766531    2.63882024540180
C         1.71764293096637   -1.65580950867028    1.09357757419859
H         0.63105472446365   -1.56069557690090    1.02542367829445
H         1.96995826281068   -2.72910517745071    1.08718856400878
C         3.56017692173244   -1.34396371505255    2.59783450922280
H         4.11621281649735   -1.09787791519107    1.68960217083012
H         3.69048812383315   -2.42031156103110    2.79972605835741
C         2.30994370787252   -0.97780691777556   -0.13007934454823
H         1.78397456943736   -1.30364298401476   -1.02729230761801
H         3.37190212189075   -1.18897759486225   -0.26175516990174
C         4.15958614234585   -0.53002271090140    3.73197136258629
H         5.24625111792895   -0.61218103046245    3.71345561596070
H         3.81117815550739   -0.84894933385380    4.71523015602671

