57
CSD_code = HUYVOO | q = 0 | S = 0 | Stoichiometry = C12H36MoN2O2Si4 | MND = 4
Mo        7.09895683971827   13.67707062506563    6.77047205263988
Si        8.57311355541165   10.77397318355423    6.00552716044106
Si        4.44613737070706   13.67688629850686    5.29178739644778
Si        4.35095313644094   13.67714879724840    8.43436695867235
O         7.59001114290138   12.06284534211521    6.04818089513384
N         7.66305660372586   13.67714268876776    8.38256962423582
N         5.18005612144734   13.67704987360418    6.87781247829973
C        10.33438183757841   11.51449589074188    6.17553362992901
H        11.07304637072256   10.78688223249271    6.49293831416113
H        10.68372716526105   11.95195774429984    5.24239150287754
H        10.29165113614220   12.30848702838221    6.92414527754803
C         8.10579280897334    9.64885778565017    7.48107954331052
H         8.83819539916361    8.86821377893797    7.65531008345509
H         8.03488770961493   10.25859225461202    8.37968016258815
H         7.14155705025551    9.16989797288981    7.32969741865059
C         8.33726083450111    9.86903711894224    4.33204344602673
H         8.98646876299661    9.00251626810018    4.27245345748975
H         7.31518591241424    9.52208956694689    4.20784571292581
H         8.57131698232440   10.51212109022717    3.48789008214530
C         5.77532218508774   13.67689683951530    3.91577172722550
H         5.31672509623985   13.67683015272308    2.92971379067078
H         6.40867029398966   12.79273632031494    3.97593249517884
C         3.39768283641560   12.09304795119209    5.05177020818783
H         3.20243374685101   11.91180780445529    3.99954946551075
H         3.90967832566909   11.22110007340876    5.45156209854825
H         2.43906897904137   12.17087132705447    5.55170065006641
C         2.44318979736533   13.67711755701471    8.29010373347445
H         2.00622884598119   13.67713067054957    9.28253845530607
H         2.07257903484882   12.80035133848556    7.77207890394290
C         4.92998151691965   12.07252473144176    9.29133873745032
H         4.59002479916493   12.00003966921730   10.31856247277980
H         4.59185951466544   11.18422134431425    8.76222347543014
H         6.01931808409447   12.08114516515241    9.28448229189514
H         6.40857675319882   14.56112954144171    3.97585769707924
C         3.39743237160374   15.26052117569404    5.05152283905018
H         3.20218429454763   15.44158796667697    3.99927698102942
H         3.90926242356549   16.13260968634602    5.45120573554256
H         2.43882190755945   15.18261161799873    5.55143125727799
H         2.07255716404713   14.55385583544159    7.77204718509139
C         4.92993402008647   15.28190888827059    9.29111954281867
H         4.59000248656139   15.35450252393050   10.31834425926370
H         4.59174761779609   16.17012995622481    8.76190671033632
H         6.01927116482787   15.27335267162707    9.28423314974865
Si        8.57311594174760   16.58005898522405    6.00514920772706
O         7.58992461197856   15.29126569165474    6.04806322669393
C        10.33448175079572   15.83924165069362    6.17296014686886
H        11.07353053617661   16.56662753351400    6.48999121153306
H        10.68282851327012   15.40227532966558    5.23921647118117
H        10.29249216407886   15.04483322468816    6.92117244537290
C         8.10740778113937   17.70434866761880    7.48182769792760
H         8.84012182121258   18.48473925665995    7.65589132906485
H         8.03720193207588   17.09402207940593    8.38008944094316
H         7.14311890291437   18.18358692084043    7.33164433466611
C         8.33570985924215   17.48593600573264    4.33239938175735
H         8.98480033945189   18.35253457589506    4.27271117287163
H         7.31350730405302   17.83287767196818    4.20931304456573
H         8.56904854142401   16.84335605684520    3.48767182893480

