101
CSD_code = HUYWOP | q = 1 | S = 0 | Stoichiometry = C52H42IrN4P2(1+) | MND = 6
Ir        4.82037295997559   -0.06990187024670    9.33899691711621
P         4.71958108016053   -2.30910948627545   10.06322943454158
P         4.91492417226891    2.18498682111713    8.67171566900399
N         3.29717065729091    0.43415568232990   10.67305795295662
N         1.04107819902352    0.34052872153707   11.33525939132747
N         5.87988750403946    0.38741638813227   11.05088671597642
N         7.85925173677288    0.83391897736070   12.23953024194319
C         6.05734534922067   -2.61209465648559   11.25679948543418
C         7.28678343549963   -3.04969765706596   10.76985877672606
C         8.37886086335482   -3.13664681290395   11.61336856071290
C         8.26261128823935   -2.77068401128850   12.94462890927588
C         7.04755494514190   -2.31911215978482   13.43251655753097
C         5.95154310350813   -2.23409749861101   12.59346866062969
C         3.15920454574509   -2.80484932740608   10.86952439701133
C         3.06135673323251   -3.47815280743135   12.08214735195679
C         1.81458236018451   -3.78933432393007   12.59730343498465
C         0.66441729780184   -3.45210630703828   11.90396404424465
C         0.75812473831481   -2.82593068899684   10.67128064826862
C         1.99954907293734   -2.50400256881972   10.15756662637483
C         4.91714519941259   -3.68203615352078    8.88656099687946
C         4.91176528506360   -4.98483828453380    9.38095446148999
C         5.04711171058200   -6.04993022739268    8.51185236401806
C         5.18297520657408   -5.82227551587462    7.15048823624570
C         5.18375849454875   -4.52768632623944    6.65871676404516
C         5.04974932213129   -3.45433154304521    7.52333664401101
C         1.97111091369673    0.44944583270012   10.44424575841070
C         1.41513408175535    0.04535366976304   12.59812167004387
C         0.43008751081019   -0.30453350528730   13.53752966230915
C         0.79803492750472   -0.69050296614618   14.79753923170007
C         2.15361771857079   -0.74058471218231   15.15624726315571
C         3.13184124171492   -0.36541460030224   14.27470828347671
C         2.78968424011923    0.06201275990542   12.97650675953013
C         3.70730757333274    0.40770734108481   11.94553943458845
C         7.21623281380288    0.48207080142555   11.17587587036106
C         7.14249973826055    1.28771803787517   13.28958034002342
C         7.82042288443184    1.81195012695082   14.40402167525342
C         7.11080823990365    2.37950466205580   15.42736057238702
C         5.71150814574063    2.46117880444798   15.36005093400534
C         5.02359135537540    1.92502423423034   14.30422414336925
C         5.71820100817271    1.28053588425104   13.26296217039662
C         5.12954365646580    0.67955276625493   12.11674380657112
C         5.34858440931688    3.19287709743074   10.11999944963665
C         6.68628906232444    3.43546840209214   10.42182783932502
C         7.02547554342541    4.10710888022316   11.58253916722181
C         6.03562549904858    4.53233944394382   12.45439647045797
C         4.70422756511070    4.27060057748302   12.17237631529862
C         4.36060035513167    3.59004995644074   11.01824289189018
C         3.38746957031610    2.96630978666433    8.04568416709780
C         3.15278543574280    4.32782012742104    8.22077338510563
C         2.02449444638135    4.91104173472083    7.67399610756548
C         1.12947192209485    4.14949987278802    6.94001390497235
C         1.37136850563186    2.80007611465077    6.74295665271452
C         2.49758951319620    2.21088338556046    7.28929657307682
C         6.06323498466308    2.72726293004959    7.36701101604494
C         6.41842506160507    1.82170923738858    6.37338376474230
C         7.21331449451779    2.23105253134734    5.31775186241992
C         7.65268448825218    3.54303171251191    5.24759003126956
C         7.29112175938159    4.44931071692714    6.23178262204520
C         6.49223161028377    4.04930887279258    7.28695408978812
H         6.02399495361952   -0.47806326797891    8.48011003847607
H         7.37739944499783   -3.31785192964970    9.72646641215166
H         9.32609379061922   -3.48325945023651   11.22979557730197
H         9.11675656555430   -2.83132345793444   13.60076053892703
H         6.95440567740374   -2.02621051996935   14.46870439894960
H         5.00849354737966   -1.87203153580189   12.97986433238155
H         3.93902223068712   -0.40641873154809    8.12717469183323
H         3.94829316235630   -3.77589571598814   12.62208010163143
H         1.74465944864742   -4.30464399578598   13.54362028638464
H        -0.30323712917057   -3.69257697052394   12.31641501696096
H        -0.13431859840707   -2.58321983776046   10.11564914096384
H         2.08962819873785   -2.02270187300164    9.19197813103525
H         4.80511826967869   -5.15884218991375   10.44327157988183
H         5.04583818455191   -7.05918818116409    8.89478757286392
H         5.28756077608100   -6.65712111506564    6.47463664284168
H         5.28903416014253   -4.35240232791558    5.59901185902268
H         5.05139861555816   -2.43747625711019    7.15656060958789
H         1.66221082675403    0.60025299440500    9.41899131419427
H        -0.59885511434225   -0.28695312807551   13.21773261247757
H         0.04939078766185   -0.97646513874351   15.51981880123604
H         2.42818166943050   -1.08384599774294   16.14187788691061
H         4.16922981540709   -0.42447987797257   14.56856152104164
H         7.80103453468855    0.20328498243157   10.31052521406705
H         8.89766763092840    1.77729577797266   14.40006059243641
H         7.62407070503012    2.79436771994483   16.28107622297561
H         5.17211238479135    2.96142881698266   16.14972226557945
H         3.94988216331086    2.02268405294192   14.25470338749843
H         7.45621132119289    3.10124626994376    9.73931136064954
H         8.06380522893691    4.29842884130253   11.80657139547049
H         6.30139085002680    5.06306269643152   13.35573612027334
H         3.93214715674113    4.59778613080864   12.85303511167883
H         3.32045141033762    3.38141579532813   10.79952544621116
H         3.84509629663287    4.93502827510065    8.78629704305203
H         1.84613866221026    5.96591570764031    7.81896633155326
H         0.24985172156566    4.60982446668501    6.51719855646950
H         0.68395607743186    2.20632300179840    6.15980180446026
H         2.70125402369140    1.16166477043749    7.12642534086028
H         6.06874304927399    0.80085983730570    6.44578201416718
H         7.48985758059745    1.52643940447813    4.54845857717757
H         8.27469198428988    3.86204606464403    4.42539280136837
H         7.62916078557925    5.47304296136855    6.17558776307226
H         6.21135156597456    4.76371408026813    8.04800641853916

