91
CSD_code = HUYYAD | q = 1 | S = 0 | Stoichiometry = C48H38CuN2P2(1+) | MND = 4
Cu        2.48224325415043   26.45668139045146    8.68351043080294
P         2.93632725354804   24.33200322811020    9.19757450655403
P         2.95651837322818   27.49765295913287    6.71279984299716
N         0.94457196502584   27.64895257551226    9.28680784990157
N         3.58105443318421   27.79893580822330    9.87130317523888
C        -0.32463041887325   27.58591790848727    8.94550673293524
C        -1.22118731525088   28.63458535125779    9.15197901457407
C        -0.77137610277766   29.78695991615978    9.75283735620931
C         0.57654950374012   29.87938676128013   10.13493577775432
C         1.40793017413155   28.77097783971857    9.86641468016814
C         2.79950310134884   28.83904208777750   10.20075972539193
C         3.30937327946639   29.99456098171290   10.83275018776916
C         4.68218747996500   30.01494343695787   11.12779270169680
C         5.46251854342306   28.93621114845267   10.78070379393071
C         4.86501167223763   27.84630687485915   10.14427489281553
C         1.12563076798995   31.03037813350236   10.76944199678277
C         2.43411432565111   31.08198095758329   11.11456046134488
C         1.72113587914086   23.40407560272089   10.18386634020325
C         0.38739902020370   23.57293132310095    9.82215328478247
C        -0.60673227896007   22.87640056874666   10.48159434803379
C        -0.27282460758763   22.01127997538362   11.51191959780509
C         1.05271078024463   21.84589686975033   11.87911657680230
C         2.05318588015320   22.53785726004766   11.21928594301858
C         4.46097212928735   24.23263356608834   10.17712149593234
C         4.42908383323772   24.78391966079558   11.45778596249915
C         5.57793900236442   24.82618416412557   12.22335464045111
C         6.77013014321352   24.33717478436968   11.70947784550160
C         6.81006508016059   23.80943294017522   10.42949083213296
C         5.66104841027969   23.75940423316851    9.65838745046191
C         3.22333862794736   23.17648808527866    7.81929654489113
C         3.24870867794701   23.67675372737200    6.52300901867398
C         3.45530717946883   22.82662417111982    5.45193780736111
C         3.63554868711431   21.47143425400678    5.67421285636276
C         3.60777405187857   20.96732067916395    6.96633062318445
C         3.39926114681518   21.81256492643937    8.03966270840798
C         2.45402351195854   29.24016419672335    6.80678425138113
C         3.27184757865596   30.16311100780483    7.45575229661613
C         2.81879814645483   31.44798062621053    7.68794686588042
C         1.54147106860061   31.81673025029812    7.29783711764998
C         0.71829418050987   30.89807061918486    6.66685028137434
C         1.16760579193005   29.61314836440878    6.42578940446413
C         2.16592617270296   26.93309266905420    5.16952965969932
C         0.97840976158388   26.21876484180587    5.31297589412771
C         0.30418272617871   25.75777344155172    4.19860188697929
C         0.82092141193789   25.99825409993018    2.93515831114713
C         2.01073620766618   26.69363647820665    2.79043128932029
C         2.68800914726745   27.16204917783973    3.90247447078166
C         4.72964467938630   27.56795754626443    6.32604384727298
C         5.52632226252384   26.56228001588527    6.86628415313646
C         6.88465705406295   26.53696483462783    6.61101882629232
C         7.45453418895406   27.51972511690892    5.81763695319236
C         6.66726636402573   28.53046510562848    5.28792385654931
C         5.30769883175346   28.56155844795014    5.54016155589780
H        -0.65628590545302   26.66170916774898    8.49272979786939
H        -2.25012348214919   28.52805257875388    8.84849855060419
H        -1.43673084147991   30.61676888312238    9.93837628093853
H         5.10952882583742   30.87810146564911   11.61651865932818
H         6.52033330738710   28.92144624643978   10.98807483929263
H         5.45198707090127   26.98747765575930    9.84898673785738
H         0.46720877296098   31.86218636613309   10.96951123631421
H         2.84539208112036   31.95460408017318   11.59944546255497
H         0.14881363161122   24.25499288259042    9.01536329380046
H        -1.64050871701131   23.00536497445588   10.19737766583885
H        -1.04684830656114   21.46646806237890   12.03036270107218
H         1.30992668491090   21.17156854345782   12.68224160058977
H         3.08578612740689   22.40812522158186   11.51241563250050
H         3.49401977885776   25.17184453382969   11.84216034487373
H         5.54794734910057   25.24070701179966   13.22006387815242
H         7.66779328378271   24.36880518769092   12.30793826341378
H         7.73974651638226   23.43227878692414   10.03019393140600
H         5.69344470632624   23.34719232581347    8.65915773097169
H         3.10286216699484   24.73893719335050    6.36167396739660
H         3.47184044649461   23.22265166021766    4.44744001278275
H         3.79548880206738   20.80463092248015    4.84076239849758
H         3.74746368008641   19.91027069561412    7.13570189663731
H         3.37207683043638   21.42116168259482    9.04693529219928
H         4.26771942021024   29.87278783582297    7.76563734306543
H         3.46286828309333   32.16359351790310    8.17737163816187
H         1.19039257636657   32.82067372155728    7.48146873236106
H        -0.27637072223305   31.18477457755023    6.35944566037076
H         0.52563633248644   28.89518350821807    5.93322618272650
H         0.60438901187767   26.02165293588112    6.31140364432845
H        -0.61660500873838   25.20455910219344    4.31168519266775
H         0.29965079655706   25.63622399278954    2.06231484076679
H         2.41404084810511   26.87348657176768    1.80508825048489
H         3.61949036773931   27.69645735743900    3.78470943641942
H         5.06698007143368   25.80463791286812    7.49243121550169
H         7.49880126751557   25.75450680248091    7.03139084993051
H         8.51445455353694   27.50246298741703    5.61490021517964
H         7.11544682852078   29.29833176787165    4.67519649220842
H         4.69810154385056   29.36084028802269    5.14044220581788

