82
CSD_code = HUZLEV | q = 0 | S = 0 | Stoichiometry = C33H43Cl2FeN3 | MND = 5
Fe        3.93890554351136    7.56071263221707   18.08502801766901
Cl        5.93493040613883    7.67004293256679   17.41941518392724
Cl        3.56815806744591    5.72621575775571   18.92993623998737
C         4.36260352770157    9.80623476710785   19.68295625016708
N         4.33692351342510    8.51300643150987   19.82611730138062
N         3.19303926132251    7.17238398336464   16.19473402082508
N         3.57578583477174    9.21848991280694   17.58385063832972
C         5.97216823361705    7.66547570964309   21.43436875278265
C         3.09948538191085    9.47758591018218   16.33107797247425
C         3.88032084317807   10.26351633020339   18.41050860790706
C         5.17696074771118    6.50292052742372   23.38884808544619
H         5.38264277424462    5.95311337609134   24.29528199677177
C         3.86940546651931    6.75035975167149   23.01284689312593
H         3.07009920554436    6.39073305135140   23.63982165516540
C         3.57651523793915    7.44365922318547   21.84793703033902
C         2.15481028443615    7.79065638483144   21.46480302611043
H         2.12771305533216    7.90344731567717   20.36900058177308
C         2.92892400808843    8.27903805341298   15.55998513786068
C         4.64431013505193    7.88800926193384   21.05016935293882
C         2.87942319378096   10.78134283610193   15.90106523331814
H         2.49815279571270   10.96402378993280   14.90961036249658
C         7.12426362588483    8.17882334339430   20.62663701114308
H         7.34543030624011    9.21251581152130   20.89633503590296
H         6.90926837550834    8.14616153402790   19.56256728454077
H         8.01321544260101    7.58437878322042   20.82165682034982
C         3.17406773586382   11.83959910125955   16.74700508514896
H         3.01630203663417   12.85584057154056   16.42257437450733
C         3.69078901791654   11.57917192071541   18.00796338184001
H         3.94912844695065   12.38820865919226   18.67162651441012
C         4.18736040364124    5.61448834939221   14.60754030676874
C         0.98406659979713    5.41993748572656   16.67888910632106
H         1.40157732489397    6.06811404735028   17.45998939454302
C         5.29992578263668    6.55930669992122   14.26510398902971
H         5.43305028450898    7.32622379127131   15.02076302057527
H         5.09941447168826    7.04169731636865   13.30693803221076
H         6.23409534332346    6.01015685776498   14.17116721884130
C        -0.06783985182826    6.25544572871695   15.92147533238025
H        -0.91070987309774    6.43926556320088   16.59062027347629
H         0.36958132512588    7.22622855494141   15.67772938094769
C         4.15932657555034    4.37475864160396   13.98417750894678
H         4.95110153681275    4.12217521473606   13.29377949202027
C        -0.32392757888154    4.57173356847929   18.68218295025554
H        -1.12374601228657    5.29097543370925   18.51895366817573
H         0.40052749524999    5.00044685821807   19.36800362123619
H        -0.75497395221817    3.68678227188498   19.14554349917017
C         1.76969734286901    9.15974757418641   22.06086767134800
H         0.78140045300679    9.43709660978639   21.69039501804975
H         2.47281622639858    9.90482708626224   21.68611153030669
C        -0.25120101627625    6.97327009461460   21.31334508548511
H        -0.23347647893252    7.25401678224907   20.26238383102267
H        -0.71241377081917    7.77991020436279   21.87844391268705
H        -0.87657154611675    6.09012892896990   21.42097739922362
C         3.13759226901962    3.47871235605856   14.22401946157551
H         3.12560559988033    2.52103082496162   13.72510083397658
C         6.21648957655534    6.96716216675262   22.60830218979666
H         7.23920993337712    6.78746442179850   22.90625763903060
C         2.11950862353455    5.03682229245371   15.76071274485882
C         0.36886778221987    4.20002276875841   17.37856412148691
H        -0.34445900232219    3.70220893676226   16.71963630154662
H         1.16961725124489    3.49638321039892   17.61098215511008
C         3.16594797467316    5.93870389710684   15.51308024906052
C         1.15825078395704    6.68124676394392   21.81807313390286
H         1.52517661405378    5.75872086378658   21.36328480689387
H         1.11385576407908    6.52629625699609   22.89557116954072
C        -0.58247319256473    5.61309924514627   14.63823518591499
H        -1.06483134047467    4.66092703725433   14.84239046608504
H         0.23121368368209    5.43895833074932   13.93774358547885
H        -1.31296991553343    6.26493488193304   14.16300788645422
C         2.12267124922966    3.81707750856726   15.09930508683988
H         1.31825660955679    3.11921605418533   15.26407407395930
C         1.76880097865871    9.21074259014078   23.58383449659670
H         2.74535169319658    8.94034054243579   23.97856829518415
H         1.02746114767391    8.53297771287156   23.99827578607249
H         1.52941307036382   10.21762217599490   23.92066274211040
C         4.82171470557263   10.76925721277587   20.73346363846086
H         5.75456514154906   11.23216916506461   20.41177740280330
H         4.99064784508041   10.25464242728586   21.67630633717426
H         4.08800228258433   11.55991333866571   20.88095647208972
C         2.48338288874190    8.35261211301497   14.13127297080267
H         2.29278039722089    7.35761043080249   13.73791887043039
H         3.25429756827857    8.82871392090071   13.52676550996191
H         1.57472842707027    8.94740922499066   14.05164729514056

