49
CSD_code = HUZMEV | q = 0 | S = 0 | Stoichiometry = C12H24HgN2O10 | MND = 10
Hg        0.00031797618155    7.23671035533843    0.00013660875998
O         0.37185081783231    4.50402990544015    1.02771084163789
C        -0.21701358631068    3.60956786460292    0.10794341497973
H        -0.17167267823537    2.58593495233751    0.51243378381311
H         0.31359319339553    3.64856117643165   -0.85150740068138
N        -1.92474464849835    7.76469400435560    2.10649285855714
O         2.45038900571608    6.56053023628390    1.36633797615908
C         1.74898225334994    4.28279440082012    1.21200370718744
H         2.27453359355822    4.31209281476150    0.24786672202414
H         1.91063935250047    3.29843212498640    1.68040203695557
O         1.71650547706820    9.39240611257229    1.03498152459660
C         2.30694792072142    5.37532814649777    2.11629976470581
H         1.61669139231643    5.53349106071330    2.95658152859380
H         3.28847738435554    5.06776577010718    2.50982201755561
O        -1.22322262312817    8.66526705884623    1.67204137312601
C         2.92996710373648    7.65029643446614    2.12149704346641
H         3.92917117403977    7.41189394833262    2.51846726870446
H         2.25232716328911    7.86452978011801    2.95960004599060
O        -1.79040943985995    6.63404982401988    1.66477782215468
C         3.01235383692650    8.87720272312013    1.22112713127694
H         3.65377089263596    9.63868174371038    1.69363879363215
H         3.45133639716940    8.58582561427928    0.25727548086073
C        -1.66980877205529    4.01027063861595   -0.11583947693874
H        -2.10576100612267    4.31533136526722    0.84355048111996
H        -2.23323068037887    3.15467289333558   -0.52075120946036
O        -0.37195390811707    9.96897669035996   -1.02761254266859
C         0.21697728748305   10.86341478712542   -0.10787904178002
H         0.17160832915406   11.88705783255251   -0.51233494606521
H        -0.31353537140326   10.82439612834251    0.85162525562325
N         1.92495372890310    6.70820075366285   -2.10636795867783
O        -2.45035565250632    7.91245352427668   -1.36634453927389
C        -1.74908474535918   10.19022729412932   -1.21188564999418
H        -2.27463531507423   10.16089313576587   -0.24774985499425
H        -1.91074311363390   11.17461163760302   -1.68024270398041
O        -1.71649215869890    5.08051465170685   -1.03509429162789
C        -2.30701053848313    9.09771058026982   -2.11622922076590
H        -1.61675659216093    8.93964483835223   -2.95653010814876
H        -3.28856423979588    9.40524006362407   -2.50971859923990
O         1.22361427185896    5.80765118149657   -1.67143994532394
C        -2.92990418613008    6.82271390810720   -2.12156502532098
H        -3.92910107143062    7.06113114747749   -2.51855763348539
H        -2.25224148388871    6.60852898307712   -2.95966150500283
O         1.78996710169590    7.83906895210518   -1.66551697727123
C        -3.01232775671853    5.59576086539216   -1.22125652131903
H        -3.65376253398073    4.83432264403689   -1.69382655814527
H        -3.45133123398990    5.88710910246375   -0.25740549050730
C         1.66978406204283   10.46267274253284    0.11575196157272
H         2.10562913904866   10.15760772921035   -0.84368524484234
H         2.23327448098123   11.31822987696909    0.52063700246158

