29
CSD_code = HUZVEF | q = 0 | S = 0 | Stoichiometry = C6H18FeI2P2 | MND = 4
Fe        2.58406360087798    8.70713115029232    2.76576128975927
I         2.82188507434464   11.13492354980754    2.67389064802562
I         1.16518990547302    7.00901749047023    1.73451469891406
P         2.39226524785722    8.31946318962789    4.87994043351132
P         4.57745128759094    7.97973682550152    2.37284347815011
C         0.65153139185602    8.56073664470466    5.40135715469930
H         0.01830536854596    7.83371033675139    4.89103235830535
H         0.33015138233532    9.56677200867011    5.12379560622986
H         0.56044424413367    8.43514292751612    6.48080898583402
C         3.26460908847818    9.36612166344869    6.10328021029973
H         3.01161844740631    9.04438118767445    7.11387150731612
H         2.96539465067442   10.40417329420799    5.96089446339628
H         4.34064968972152    9.29208163695590    5.95290889310177
C         2.73388801040003    6.64575565189999    5.53858049199004
H         2.40444587393243    6.57915276577239    6.57562812786482
H         3.80380598001879    6.44728802110600    5.48213190687565
H         2.20301013683249    5.90861092535079    4.93648791429499
C         5.10973335994492    8.50466998813009    0.69907091639909
H         5.16739481692023    9.59350160593987    0.66490824331774
H         4.37437179310180    8.16603682036793   -0.03385374315699
H         6.08388534426995    8.07627213671928    0.46078595167650
C         5.98468709933137    8.55757128229555    3.39165839828856
H         6.92562385973072    8.24840893490140    2.93613806323686
H         5.90600692806596    8.13104188134525    4.39122769806100
H         5.95163326029962    9.64443475272003    3.46462208257703
C         4.91538668474047    6.18180892243064    2.29206185437735
H         4.27719202724275    5.73372307093578    1.53087013142267
H         4.68732830749574    5.71914839030682    3.25126868060380
H         5.96304713837566    6.01218294415340    2.04191355463180

