51
CSD_code = HUZVOP | q = 0 | S = 0 | Stoichiometry = C15H31Cl2P2V | MND = 9
V         4.84055007051249    6.77115304991645   19.82828535198635
Cl        3.77772259114302    8.73327862545084   20.36372804280754
Cl        6.41853469391197    6.35636244131749   21.44672729036535
P         3.56707746807642    6.24152057581241   21.73310575541430
P         6.46602676913367    8.43254311709848   19.46972820259121
C         3.70150658713080    6.30724726615250   17.92097771290051
C         3.55070334174132    5.28235561752514   18.87382266013898
H         2.61293006453487    4.84675071329123   19.18884062538974
C         4.82893123439677    4.75500972471276   19.18478906301455
H         5.02554279723573    3.87098665440238   19.77532972457617
C         5.77659721509710    5.47208361093696   18.44449330238751
H         6.82866552574976    5.23539766361196   18.36678693639928
C         5.08139974832843    6.44058261143024   17.67799969367646
H         5.53067328340248    7.05396992717054   16.90968603512625
C         2.59039844778847    7.01958573318074   17.18912949617206
C         1.34807714003667    7.15759718628948   18.07422274853299
H         0.93360266290221    6.18458932475603   18.32875161809488
H         0.57865568976392    7.72140714218655   17.55034241259119
H         1.60500649916437    7.68928425016609   18.98811869762670
C         2.24555206128894    6.18018545265496   15.94736548040610
H         3.11458783918669    6.07953818297726   15.29916265603351
H         1.44545936727145    6.65444201836708   15.38247737167538
H         1.92027753921655    5.18240323369817   16.23745110811988
C         3.02823130814303    8.42123287472854   16.75378482050732
H         3.34269392203375    8.99475518078089   17.62334017138783
H         2.19769846273439    8.93986480217600   16.27887791631619
H         3.84605957271974    8.37560531515746   16.03791459798174
C         3.72384322189662    4.53577501212138   22.38669138765432
H         4.77984413450446    4.31189632425441   22.52873809276278
H         3.29563077700559    3.83003388925699   21.67651497184384
H         3.20042746052297    4.45351277602948   23.33959631107338
C         1.73955989215160    6.42597887063098   21.71355626515831
H         1.33647842448608    6.14589786450621   22.68729730287950
H         1.30088133322146    5.79137958688060   20.94726051101134
H         1.49319191443877    7.46490465241591   21.50267978713221
C         3.92857390204822    7.20263827563456   23.25183010796398
H         3.25961657992548    6.86959693021989   24.04661618856339
H         3.76732192322557    8.26224297624238   23.05596786416363
H         4.96369062858721    7.04413117270193   23.54832023116399
C         8.12799109362899    7.86644631416074   18.94192776145901
H         8.82586933361405    8.70407879664389   18.95139276707246
H         8.07226325754357    7.45300787918894   17.93606061813311
H         8.47061834485863    7.09723456931863   19.63206661927178
C         6.17008519361715    9.77892886724576   18.25563958228533
H         5.28568209644930   10.33676200257919   18.55778987392939
H         6.01131594870018    9.36743022923476   17.26172611363989
H         7.03293654392402   10.44544797295478   18.23589444100405
C         6.92236920153586    9.45714549330447   20.91989018660822
H         7.35608991413785    8.82495928396921   21.69237978802422
H         6.03188555339050    9.94695519343899   21.31239994967689
H         7.64727142391003   10.20918277110905   20.60522378530754

