101
CSD_code = HUZWUV | q = 0 | S = 0 | Stoichiometry = C50H42HgP4Se4 | MND = 4
Hg        6.60787949990088    4.65941536010738    3.85104731827203
Se        8.14187408388251    3.38409260880225    2.13243472488301
Se        4.94880737578800    3.20015500911522    5.35897728659137
Se        7.95561125191410    5.89251295850578    5.80089436352734
Se        5.19303139897175    6.16988321443641    2.22647741309728
P         8.00490618903896    1.71333088941293    3.53271961500133
P         5.05032546736187    1.69949723343689    3.82539159896264
P         5.38730803517701    7.72885923608471    3.74805911681632
P         8.27402940897221    7.48197605639751    4.39520213800747
C         6.54507002065015    0.77783332893789    3.82384990007068
H         6.46627509227047    0.00036925587447    3.04987747241477
C         6.89352484699960    8.53663629917703    4.14359167476887
H         7.13778023988490    9.26621261758491    3.35929315608509
C         9.22125658738314    0.48685393636373    3.00563168209767
C         9.41008860558362   -0.60523762086011    3.84632615651754
H         8.83857929378763   -0.67419416009775    4.76232400645386
C        10.32064092886695   -1.58293590497460    3.49456269959148
H        10.47462186187043   -2.43369014500919    4.14207543314798
C        11.03741488986309   -1.47055521708775    2.31242110119796
H        11.74918645516019   -2.23637250637174    2.04120523658116
C        10.84511417386660   -0.38146140414481    1.47835986766630
H        11.40347496921471   -0.29824876108563    0.55753769175669
C         9.93552633640919    0.60213952015340    1.82427643671010
H         9.76952712279677    1.46374072310877    1.18605539267556
C         8.67667759906480    2.30813343706045    5.10704396011268
C         9.89289204817693    2.98526791197605    5.05568545320154
H        10.36389324134440    3.15098437474681    4.09211361590536
C        10.46937103737220    3.44122136175198    6.22500780148021
H        11.41275909795215    3.96736861114420    6.19381609436578
C         9.82691585921751    3.23513812229705    7.43732023302504
H        10.26713041916897    3.61307206466200    8.34848080417173
C         8.62539905754413    2.54716589686474    7.48584227575419
H         8.13002890862349    2.38502347872116    8.43187443850876
C         8.05237322308300    2.06251984385830    6.32262420071729
H         7.12651469127098    1.50192430536976    6.34689329700921
C         3.79063367524480    0.45837073566817    4.21198604030396
C         3.64620481742085    0.06675804602781    5.53633434675441
H         4.23997238187951    0.56177108411053    6.29573498451656
C         2.74107385268781   -0.92378589628884    5.86545385317993
H         2.62217940139188   -1.22736939790461    6.89511584625170
C         1.98480143255367   -1.52470715905449    4.87096258212368
H         1.27579247464009   -2.29822431389671    5.12719197549368
C         2.13153084003522   -1.13496729080480    3.54957746653452
H         1.53919263305983   -1.60425262722583    2.77753448079295
C         3.03587182946043   -0.14313021311424    3.21367580414256
H         3.15498434394725    0.16780159373260    2.18392722562945
C         4.44884829649568    2.45697133276670    2.27459637119272
C         5.10646443446555    2.25518144025784    1.06824382495343
H         5.98657076395847    1.62239050301431    1.02945234329641
C         4.63433592270967    2.87611660845949   -0.07505250997299
H         5.15732640151176    2.74078401144894   -1.01028381542825
C         3.50363069521279    3.67358221821473   -0.01492162757676
H         3.14499120708892    4.16459242949318   -0.90759991388535
C         2.82941468802525    3.84777225175353    1.18520797656620
H         1.94340335275938    4.46458683283498    1.22558635449420
C         3.30249898116734    3.24456429497602    2.33481782038214
H         2.80296945119953    3.37610351590295    3.28856128850575
C         4.63343260515274    7.11548356555479    5.27708964816574
C         5.12662545902525    7.49884813355198    6.51880797532343
H         5.99812423437459    8.13880279080100    6.57473901964228
C         4.50922622940064    7.03268664866871    7.66486553741714
H         4.90391682047086    7.30721545107179    8.63218365503646
C         3.39778574538553    6.21030850272682    7.57385176216937
H         2.92701869586287    5.84051760527024    8.47295051547016
C         2.88715590844095    5.85756771174334    6.33451315070431
H         2.01650764443551    5.22168645237254    6.26584453828512
C         3.50313834161546    6.31039314109139    5.18202797806930
H         3.12111219880447    6.04144972665644    4.20229568320072
C         4.29270879829244    9.07658988004188    3.24465362922413
C         4.18051027113017   10.14909268439606    4.12341682448666
H         4.73918965873880   10.13724033658494    5.04937744060822
C         3.36243424103715   11.21326249301246    3.79624426953408
H         3.27049717922821   12.04967528153275    4.47352002377623
C         2.65987217119031   11.20672515233693    2.60046768544153
H         2.02099394900365   12.04024487007574    2.34797892409177
C         2.77365722004724   10.13603565679131    1.72918300205189
H         2.22635524394450   10.13391515912092    0.79809433774306
C         3.58977010163383    9.06614558820842    2.05086025134962
H         3.69245823727229    8.21897138812569    1.38144018128735
C         9.52522802498945    8.59235942780876    5.09422459238294
C         9.68762238971071    8.68470449059089    6.46834846311331
H         9.10851336399255    8.02975693992590    7.11019326621696
C        10.59168685182812    9.58916440490911    6.99403706912530
H        10.72510529840840    9.65915907072032    8.06355257155667
C        11.32553262351898   10.40388808734880    6.14680704448700
H        12.03234510433640   11.10996385905507    6.55732217085058
C        11.15843578722875   10.31546128180011    4.77367282326137
H        11.73242144578803   10.95193945767747    4.11605703407217
C        10.25741967758970    9.41124867888444    4.24265838838306
H        10.12259656121310    9.33000399461021    3.17152115685577
C         9.14006190048854    6.77857758615549    2.94782518634507
C        10.32596704124902    6.09128549310478    3.19361532209682
H        10.67460873382247    5.99958605451874    4.21646054918065
C        11.02122482297005    5.53563196704024    2.13799846291602
H        11.94227294394921    5.00025486563968    2.31982533173650
C        10.52860056176124    5.65425934732125    0.84586428774646
H        11.06566630314666    5.20455368416680    0.02361400186135
C         9.35040982437697    6.34178479478696    0.60354188994093
H         8.96890475107494    6.43211370435690   -0.40283384574047
C         8.65465799073081    6.91737892689387    1.65417666409464
H         7.74062584787072    7.47222372594804    1.47141516080573

