40
CSD_code = HVIORU | q = -1 | S = 0 | Stoichiometry = C12H6N9O12Ru(1-) | MND = 6
Ru        0.25503680389537    4.50696030092844    1.58219966963865
O        -1.19319686132284    5.85973643632529    0.59594201592322
C        -0.51150977315328    6.53099588555361   -0.20005766296839
N        -1.14953551810159    7.36354857339336   -1.08644540636241
C        -0.51822433035282    8.20273757506550   -1.98358232340798
O        -1.13301363913400    8.90324522015225   -2.75237175503384
N         0.84364609417135    8.18754595442829   -1.90003834099016
C         1.67034763650304    7.43068932419716   -1.04478660748576
O         2.86509964527265    7.58628387337146   -1.10176461104367
C         0.91367433829709    6.53533003112436   -0.19231260883142
N         1.45630162175368    5.65694450700789    0.68711819445312
O         2.65020484762530    5.65353793647310    0.97974170066675
O         0.85458769841423    5.74900048980389    3.31393434114345
C         1.86791704844126    5.18922904359325    3.77104097295928
N         2.58261881601049    5.81253206019626    4.76424289251617
C         3.69107364997586    5.28422236535615    5.39664897164899
O         4.29197354654471    5.88748921595343    6.25381557732594
N         4.01948128783623    4.02416916070896    4.98895278672395
C         3.39559890943051    3.21713261365783    4.01569681308702
O         3.81993072641627    2.10470354651151    3.82224667149664
C         2.28903855998946    3.88975607755153    3.36455328631902
N         1.55020168450271    3.36918231739845    2.35327127445063
O         1.63003685096726    2.19410675827313    2.00135509261636
O        -1.12321925888029    3.07865068700819    2.56220409209353
C        -1.29292959425185    2.17417182947091    1.72423159980896
N        -1.97857534544037    1.04323127429105    2.09373640425453
C        -2.28391068284858   -0.01046745119658    1.25456286055414
O        -2.87563008316884   -0.99056312261108    1.64049825370795
N        -1.88633754146961    0.17108253343313   -0.03804031007709
C        -1.20608056007066    1.26541549788743   -0.61025379032391
O        -0.97406919272795    1.25278621443454   -1.79388687914451
C        -0.87145315953390    2.28219412594338    0.36701325596573
N        -0.16888671427360    3.41196059089870    0.10319483960453
O         0.10698858657648    3.77841976499067   -1.03718878011015
H        -2.16195744219493    7.34534893272641   -1.10373702252789
H         1.33468133605111    8.79850499606516   -2.54253863815652
H         2.29373022656440    6.74374619637900    5.03814868181334
H         4.82558642218778    3.60737326925127    5.44028670450078
H        -2.26072540364814    0.95956681945897    3.06273428132166
H        -2.10300123685217   -0.58340142545694   -0.67916649813273

