55
CSD_code = HYXMOA | q = 0 | S = 0 | Stoichiometry = C20H24MoN2O8 | MND = 6
Mo       -1.32001404058474    2.89850424050148    1.09760790421021
O        -1.32920911846539    3.90767738279104   -0.20079882168720
O        -1.11956525343598    3.68504210259047    2.52746077993587
O         0.45783809812685    2.25490503037130    0.89822523561488
O        -1.43004818596877    1.24293198468290   -0.40140517994296
O         6.08231545398368    1.99208485980506   -1.75997874071553
O        -3.19826842930858    2.62435747257545    1.23162845295947
O        -1.58677854940825    1.05527791395230    2.32700210551264
O        -8.69444107867006    3.24659227025076    4.16444158125567
N         0.72153554416457    1.76579843279541   -0.35487291341218
N        -3.57792438208136    2.02049020066679    2.40256494111200
C         2.07039585862094    1.84030151726972   -0.76522396623851
C         2.42336053024538    2.25414029150078   -2.04191738041428
C         3.75623305782515    2.31477886080873   -2.41228708476961
C         4.75489315744050    1.98021581378330   -1.50077564486693
C         4.39059377568148    1.60366157694395   -0.20332014527819
C         3.06665304611791    1.53779645524692    0.16227330461281
C        -0.31723594630137    1.21438605987154   -0.96673119309740
C        -0.13987019038851    0.50341535854744   -2.28064089948416
C         6.53726142181588    2.38910025889526   -3.04077144778180
C         8.05519415357664    2.29982173932163   -3.03621197258660
C        -4.87814554207948    2.33157336203987    2.85468549016378
C        -5.14932983080697    2.57337623099844    4.19967983287200
C        -6.43442809589661    2.87283891247320    4.59431854283207
C        -7.47220800009509    2.95960227605090    3.66076679616484
C        -7.18483403663083    2.76019342030203    2.31207122632437
C        -5.89653679101106    2.45163549757659    1.91724714570443
C        -2.68848922358540    1.17370120802225    2.90289347107320
C        -3.03043736873500    0.31372253721746    4.08883199221540
C        -9.79546662763240    3.37602225164370    3.28288073453524
C       -11.02155828654732    3.69179563865870    4.12472844549802
H         1.66243450792879    2.55351570805320   -2.74426414359357
H         4.00272284781679    2.63973500933744   -3.41039636400463
H         5.17435893756396    1.36936253578282    0.49879408588279
H         2.77880560546713    1.26423005948506    1.16587885351756
H         0.87680241145652    0.14376376629513   -2.40966773767214
H        -0.84185341064142   -0.32707301300205   -2.31369292365828
H        -0.39056376091874    1.18180955745914   -3.09412986880035
H         6.21741586347227    3.41860478844938   -3.25064806612640
H         6.12010599377049    1.72536582157148   -3.81076260900795
H         8.46237560262240    2.95293213030062   -2.26957700528460
H         8.44611955081009    2.59799835928692   -4.00464084048603
H         8.36611037250376    1.28078375568252   -2.82332990349625
H        -4.35440290971780    2.55402237805769    4.92667450424065
H        -6.66531006975704    3.06168355306110    5.63036346251700
H        -7.95373473045273    2.84599014832826    1.56133862386885
H        -5.66184917881640    2.30961836507768    0.87322909318304
H        -4.10138277306140    0.15693519581819    4.17796978794925
H        -2.65605758054063    0.78324204886652    4.99663849730936
H        -2.51726112494581   -0.63873978907243    3.97374971323533
H        -9.60846059182433    4.18520022522336    2.56435646353714
H        -9.94595821471683    2.43910307891384    2.72922210464748
H       -11.20091615991002    2.88946127582475    4.83501968230701
H       -10.86392892198745    4.61390624589975    4.67690489722031
H       -11.89135738606033    3.80300763708721    3.48389710038129

