41
CSD_code = HYXMOB | q = 0 | S = 0 | Stoichiometry = C16H16MoN2O6 | MND = 6
Mo        2.47030541222761    1.44285714450818   -1.71786869582804
O         3.17537630674036    0.04429008966955   -2.21742422915417
O         3.34848095335612    2.78314150360963   -2.08533071281388
O         2.94365617897212    1.30078969638019    0.11636041074684
O         0.92465470672576    0.12746592977413   -0.77168182638247
O         1.19034855414593    1.60777978404016   -3.11147099226440
O         0.91791003605768    2.87094020662026   -0.97339715536917
N         2.62304950695930    0.07717847746466    0.64665284662647
N         0.62431471163245    2.85546984448919   -3.16708071214582
C         3.51072979197709   -0.40568326952922    1.63055583844562
C         4.03215940334248    0.49965984221022    2.55007918643124
C         4.92144643121289    0.06302153948791    3.51378606455087
C         5.29768839516013   -1.26953298224375    3.56256293544699
C         4.79934693464443   -2.16212747349972    2.62822744673469
C         3.91283629714585   -1.73699147822181    1.65411389563965
C         1.51765235283203   -0.46600901040762    0.15182294320916
C         0.94058448573405   -1.71644961870764    0.75639372459135
C         0.26618805950539    3.29817041376264   -4.45758822100455
C         0.50359961508850    4.60533029675356   -4.86910451906953
C         0.14997853189505    4.98912530782964   -6.15100766465674
C        -0.41957038189150    4.07846056179392   -7.02532531445957
C        -0.62313587018105    2.76859624142906   -6.62222612831149
C        -0.27971577351488    2.37355555548128   -5.34315420629991
C         0.47735582072076    3.44772224523548   -1.98827841409954
C        -0.28631659571109    4.73784026075503   -1.86788721565755
H         3.73936820362231    1.53635650285277    2.48344666538443
H         5.32311948797302    0.76497351376000    4.22816081658719
H         5.99199259326295   -1.60857890692460    4.31615075773530
H         5.11242657104056   -3.19534068762571    2.64758717784812
H         3.56227027117799   -2.42362937901936    0.90031097831224
H         0.98898777748507    5.30338908012850   -4.20680078480936
H         0.33509926251263    6.00293522636763   -6.47235336415135
H        -0.68854531789617    4.38513776750074   -8.02457278438302
H        -1.04852474311834    2.05138825075889   -7.30732159333063
H        -0.41309016329958    1.35404164096210   -5.01444667509440
H         1.23347694855294   -2.57630585102530    0.15636144132660
H        -0.14421449138178   -1.64102289466517    0.71523087061812
H         1.26918150838163   -1.85991660634712    1.78145306486407
H        -0.82617975120071    4.72304557980927   -0.92323124401155
H        -0.97745945910931    4.87818403644948   -2.69378526360253
H         0.41396743721758    5.57064161833410   -1.83371934819802

