50
CSD_code = IBAFIC | q = 0 | S = 0 | Stoichiometry = C21H24Cl2HgN2 | MND = 3
Hg        0.46187052845471    4.09739300930663    0.29260904222183
Cl       -0.99207200216987    5.24470858171477   -1.08666970486349
Cl        2.44041416302791    2.92200096080245    0.47094116938165
C        -0.46083893832446    4.15660332505530    2.38491256437535
N        -0.27253023876904    5.09395835253700    3.32638684009946
C        -1.66041064974446    3.64447711734794    4.18760922496562
H        -2.33378833801617    3.06941923442866    4.78987102500807
C        -0.99976385741702    4.80119608877551    4.44524144570846
H        -0.98834789694029    5.42628344921804    5.31470735510489
N        -1.31396873654677    3.27002529321859    2.92025392409742
C         0.03748902800134    7.39969762656218    2.62767056077632
C         0.22719371819007    0.88089494942628    3.12092899570067
H         0.56732662723569   -0.14405673567982    3.23796340612199
H         0.10469891233117    1.32565841944100    4.10770750680923
H         1.00136741684605    1.43960316786952    2.59180511061518
C        -1.04896004586435    0.92587315722335    2.33878967440181
C         2.72636949479321    7.23681611036665    3.33316033009491
H         3.77288443851374    7.17442824992358    3.59331610386468
C         0.57449070172867    6.22554160370870    3.15484326806628
C        -1.39831845934639    7.46015271324517    2.20677641351481
H        -1.54262103013513    6.85517115002303    1.30968248711312
H        -1.68653344462976    8.48206506398629    1.97775112070699
H        -2.05751330603692    7.07452343802195    2.98351586840310
C        -1.52647648346290   -0.19265607374700    1.67298307912392
H        -0.97313868212248   -1.11795416693436    1.73913530081246
C        -3.38298311356091    1.05348628891005    0.82427392361439
H        -4.28153607446028    1.10239360236830    0.22683678364257
C         0.87970643852618    8.49161165576957    2.47627838399511
H         0.47949619464860    9.40745609018717    2.06672639039657
C         1.92248026599300    6.12091399111271    3.50180311070001
C        -2.94268229019085    2.19712550059578    1.47237998478089
C        -2.68977704766578   -0.14584235990920    0.91705924759479
C        -1.77865012179153    2.11060126525155    2.23687259320122
C         2.22063963984456    8.42696606748827    2.82553395285205
C        -3.17172936562228   -1.36003472534717    0.18566996908766
H        -2.75149513699006   -1.37279336223213   -0.82017396597851
H        -4.25536802230133   -1.35600434494926    0.09653345773384
H        -2.85913795122431   -2.26974412696620    0.69231203548868
C        -3.66990444755479    3.49905078143803    1.33626296078686
H        -3.83770328605405    3.96442352261222    2.30677632316540
H        -4.62877740737309    3.35162991032729    0.84774949555110
H        -3.07885033390458    4.18705818497925    0.72897625679521
C         2.48141872117489    4.82668852404590    4.00673539460188
H         1.86323230865892    4.40880613605123    4.80028626771487
H         3.48971738607068    4.96807216042955    4.38518590481961
H         2.52083548637440    4.10189444363376    3.19147440365606
C         3.11601250709512    9.61679315052686    2.66862281639612
H         3.33262591230898   10.05231168172962    3.64419978746743
H         2.64890139977634   10.37776666560235    2.04938451299931
H         4.06190541875576    9.32584521067402    2.21674789685855

