66
CSD_code = IBAGEZ | q = 0 | S = 0 | Stoichiometry = C23H28ClF3N4O6Pd | MND = 4
Pd        5.37613076813294    1.87615438187572    7.69083460909841
Cl        7.32945163000331    1.66730962861316    6.72798482315672
C         4.18696432089574    1.91262326028714    6.09528131201229
C         4.49645885348734    1.78133869752677    4.75105330010455
H         5.53405823333614    1.69736635884366    4.46015516084103
C         3.49780786565109    1.73716061443305    3.78070184995703
C         2.13462799616216    1.81884747551034    4.17109346217836
C         1.82020863157429    2.00039943641746    5.50099852149351
H         0.78784771900701    2.08918989054262    5.79987524200789
C         2.82767483542698    2.04400079406704    6.47863645810587
C         2.57572764074912    2.16991785354773    7.89795379686455
C         4.88804755669344    1.92741304344260   10.59535021197554
C         7.15824938781686    1.65322488279445   10.46772339135596
H         8.03850819145836    1.57902837163752    9.84021173107581
C         7.23036106636775    1.56662907387413   11.85710563605786
H         8.16208315594330    1.41461341527375   12.37227534223896
C         6.02557930974829    1.68448427116337   12.53495718989695
C         1.22403968069084    2.37149093507932    8.51362931580704
H         0.84580670329344    1.43227393957533    8.92003367660817
H         0.51669891279513    2.73205963987726    7.77474690436691
H         1.27174442224815    3.10413165649563    9.31947030580881
C         5.95223956864809    1.63026484296559   14.04490951672334
C         5.02683308128151    1.64529480980539    1.95838951764193
H         5.58676328055700    0.75350010685868    2.26946269097902
H         5.54274084729204    2.54488343610638    2.31282368476121
C         4.93503360975016    1.69775767922723    0.43661848865373
H         5.88748601010739    1.36298056651914   -0.00584604665285
H         4.13407082374027    1.02164669453292    0.10557017937908
C         4.38755494640748    3.15584874973921   -1.32550943414531
H         3.59742553093193    2.45838462760545   -1.63582565436775
H         5.29776619541626    2.94266123759485   -1.90946253797774
C         3.91026678607572    4.57966864175109   -1.59473751837891
H         4.39247833040124    5.25189325129854   -0.87163464938427
H         4.19816022527026    4.89132193970449   -2.61236423865564
C         1.98500703582095    5.92528652141761   -1.48327237473455
H         2.12965972786587    6.37344706778959   -2.48058994932835
H         2.48395696661240    6.55927721439549   -0.73686917327888
C         0.49682656034430    5.86233078463172   -1.15691536833620
H        -0.01154458914738    6.75519400102203   -1.55716406944495
H         0.06809526498528    4.96893365766580   -1.63210156544244
C        -0.98313235525342    5.58733610533105    0.65441176796642
H        -1.44210078199319    4.76846637294774    0.08345864688323
H        -1.58146505283807    6.50116011326599    0.50504356613507
C        -0.97316907943133    5.19747883854159    2.12920046911458
H        -0.15391838673093    5.73284992496692    2.62820326621200
H        -1.92582522438648    5.48022168537949    2.60622149571146
C        -0.52475129144594    3.33149165503345    3.50914550478990
H        -1.42477486206501    3.43604919779447    4.13952096993051
H         0.29318409602550    3.90265679114009    3.97399792634837
C        -0.12658250290064    1.85427182296880    3.39038416990125
H        -0.45435056191319    1.28940706267974    4.27227500380965
H        -0.62064120020882    1.44970040891851    2.50412420246660
N         3.65730091511333    2.06955166351658    8.61258331896555
N         3.70265812350551    2.09474558162578    9.97203130497875
N         6.00934239221694    1.83100552135361    9.83941467328769
N         4.86493390640371    1.86658845011136   11.92716983528265
O         3.70803870299568    1.59636425783318    2.45940187564134
O         4.65631768111712    3.01938868347826    0.04797309412982
O         2.51184864512480    4.62338206144192   -1.45695666145088
O         0.34179111001232    5.80088994119055    0.23848655912622
O        -0.78251514807017    3.80714162232346    2.21362632423492
O         1.24420860582956    1.67259342782958    3.15122156354822
F         5.85358628017156    2.85875767763688   14.57740680269888
F         4.89980028100493    0.93220821939981   14.47948110436553
F         7.04349608802507    1.06809496191197   14.58258357986834
H         2.86472253581233    2.14126449983343   10.54443589703128

