67
CSD_code = IBAHOK | q = 0 | S = 0 | Stoichiometry = C32H31FeIP2 | MND = 8
I         1.57071478009775   -0.84202377381404   -3.67406676693699
Fe        1.86657756860768    1.41096065646499   -2.54699412617176
P         3.65553151801642    1.67298730889408   -3.70091400668084
P         0.88448950361794    2.40109365497582   -4.16893730628618
C         1.80721246122110    2.14668903149879   -5.76179403325734
C         3.24856993699863    1.65855443478071   -5.53450773827786
C         4.26073928698128    2.40181855754664   -6.39897687059847
C        -0.81825224035091    1.96219097262811   -4.64785094074278
C        -1.55619304855631    1.08189681224933   -3.86991106520759
C        -2.85798779781469    0.77049173764045   -4.22016769451656
C        -3.42621279290266    1.34128998849043   -5.34580802280369
C        -2.69465076969951    2.22801556531793   -6.12128353715655
C        -1.39545168498082    2.54285671500837   -5.77401343157020
C         0.65074621026254    4.20679194954706   -4.06188520853856
C         1.49927555579001    5.14692644908632   -4.63374593926553
C         1.28266437956257    6.49759504639989   -4.42487604408566
C         0.22660451651109    6.92189817953767   -3.63667222034838
C        -0.61578519545699    5.98983830177128   -3.05038331436997
C        -0.40114242888238    4.64177925304906   -3.25856536273224
C         4.97394937514809    0.44225065848220   -3.47822745002182
C         5.65542812471058    0.53575291612691   -2.26476412411004
C         6.61253754118020   -0.39669656694139   -1.92050477887873
C         6.89389759749565   -1.44497234080403   -2.78301183728098
C         6.21040118546438   -1.55378706072426   -3.98126208162620
C         5.24859545655134   -0.62095090875046   -4.32918741292659
C         4.61826583293413    3.20922191823895   -3.48414565817438
C         5.96674884070895    3.30688902071656   -3.81772461061724
C         6.63652573025188    4.50363272107208   -3.64451741361330
C         5.97306106493010    5.61099268083029   -3.13897804908908
C         4.63531891562255    5.51667024160861   -2.79463630940567
C         3.96592290575531    4.31850322137622   -2.96230146782430
C         2.48678275637016    0.80287282733824   -0.61168230362480
C         2.71360887927374    2.18662729808202   -0.78349412878576
C         1.46944284418660    2.80918998017432   -1.03142973332816
C         0.46113831764752    1.81070226479457   -0.97529341623365
C         1.09022337449036    0.58396496729008   -0.70708853450301
H         1.23949343518394    1.39538885913717   -6.32251613154521
H         1.79466690699996    3.07243142575502   -6.34389534882355
H         3.28776136925314    0.59631681647297   -5.80438041207375
H         4.28639891945445    3.46459073308207   -6.16074863350828
H         4.00221005355447    2.28974978631799   -7.45165029865467
H         5.25950713261092    1.99470660681840   -6.25063996541560
H        -1.10196184455831    0.63250135483074   -2.99877658186173
H        -3.42658400164794    0.07884895706359   -3.61652297873624
H        -4.44134965524066    1.09686277358484   -5.62196896778976
H        -3.14059521038769    2.67498390662885   -6.99812731030588
H        -0.82380534506269    3.24238415573127   -6.37009565180100
H         2.34160471100967    4.83206615774834   -5.23352374941073
H         1.94584178798874    7.22099643689262   -4.87720235292206
H         0.06140676261734    7.97692445205580   -3.47544944457862
H        -1.43733405225763    6.31667960130284   -2.42950947748100
H        -1.05215202534389    3.90611458193799   -2.80382777396986
H         5.42575394407318    1.35488211839406   -1.59504919824160
H         7.13521693374210   -0.31249878225354   -0.97849661615054
H         7.63850985418613   -2.17980785071268   -2.51528336293711
H         6.41739079716040   -2.37670683564021   -4.64901696095917
H         4.71276165820941   -0.74283010038396   -5.25805755655238
H         6.49354200421745    2.44387395627787   -4.20060362329728
H         7.68306438796802    4.57353850565450   -3.90364842340130
H         6.50221715093533    6.54328791913505   -3.00693604747946
H         4.11329863562036    6.37288205850012   -2.39211466607095
H         2.92680817903071    4.22656842686236   -2.68263268143276
H         3.22185299208341    0.06348819336259   -0.34117378080008
H         3.65665932520622    2.69654575010133   -0.67003947860992
H         1.29020315666011    3.86969800660776   -1.10898232090203
H        -0.60077880307361    1.98707815938749   -1.01343778585785
H         0.59639233803990   -0.36336081067401   -0.56478947888339

