37
CSD_code = IBASOW | q = 0 | S = 0 | Stoichiometry = C10H15CoN2O9 | MND = 6
C         5.93128005757213    3.86008465791507    3.38898310127355
H         6.04550580518689    3.60176868172057    2.33278078002920
H         6.14976032789278    2.97055747465628    3.98781404759228
C         6.89510446076330    4.99196369992075    3.74321214753575
H         6.97702370294424    5.06834571224061    4.82855769229707
H         7.89471998585463    4.79180979703250    3.34066785043801
C         3.68813236855026    3.84386334007310    2.48877894053785
H         2.64360519742846    3.79943306124686    2.80471297284260
H         3.98540902806942    2.85506365689196    2.13102851675718
C         3.75997840367902    4.92114021742406    1.37871131720667
C         6.79432811486139    6.46738552421465    1.83248287388890
H         6.79539149613077    5.51156988961030    1.30616780955961
H         7.80873033131638    6.88872445920561    1.79669424471801
C         5.88508450524236    7.39093153571734    1.02503834267496
C         3.92885427055455    3.89219329609632    4.88070574080187
H         4.58095228886760    4.13850207911809    5.71979268400056
H         3.68476908951604    2.82562744520684    4.89415380053088
C         2.63999810003962    4.77349954954405    5.01398554435542
C         6.85403658635890    7.36000629151479    4.10185047333969
H         6.55451165810703    8.32890158531474    3.70202224941421
H         7.94386166050171    7.33664972563831    4.21642349448633
C         6.16531989993571    7.14906762567762    5.49264519043677
N         4.53931251429891    4.30354006860108    3.60903436095706
N         6.37356171937912    6.28201302392761    3.22611387728282
O         3.67090676590147    4.65523720811362    0.20433295470297
O         3.94042325848387    6.09116900015073    1.87568610002137
O         4.02421443759802    8.16878703680583    3.69801785522157
H         4.20155425601571    8.56117240834863    2.82209250901688
H         3.08176341203425    8.26528627179409    3.89379175369309
O         5.39943009363224    8.41823438853059    1.42987147573072
O         5.79669650538813    6.96874927908860   -0.21845331178276
H         5.16619063546019    7.49134638178224   -0.74043507498283
O         1.67594109629973    4.39101765381016    5.62616324261384
O         2.73122270549272    5.87962855774476    4.36418709295218
O         6.68321613011356    7.56058598341333    6.50119988245788
O         5.08963325676872    6.45668889404725    5.41605624029105
Co        4.42507587376031    6.20085453786266    3.68253122710569

