241
CSD_code = IBAWEO | q = 0 | S = 0 | Stoichiometry = C72H118B2FeN12O24S6Si6 | MND = 6
Fe       19.47735333784962   19.73263436865244   14.04300853910907
B        19.80630501544163   20.15635772832750   11.12504389566435
B        19.15662700706110   19.28206696746441   16.96800960981597
O        20.45141088267022   18.86649087517734   11.52513976526398
O        20.59979177715643   19.15236669078400   16.59314381011855
O        20.43405554032351   21.27770395536571   11.89172415838559
O        18.67284016015254   20.64596186631250   16.59109995166957
O        18.34710256555283   20.08640498481800   11.45910661954120
O        18.36759800085256   18.25944152459606   16.20364805872074
N        20.53502713512131   18.71391515999996   12.86241933473968
N        20.78318590301113   19.04806328136767   15.25321230844666
N        20.09192228846774   21.28183886749132   13.19464206094245
N        19.04635900565745   21.00525693173067   15.34811562380332
N        18.11287770239974   19.62731108212540   12.71408989228454
N        18.26342743044616   18.54571199338581   14.88617735991855
C        21.51084239814996   18.01886421381545   13.36355885364571
C        21.58027117077993   18.13227095261883   14.78995051356672
C        19.89060970486763   22.41582771975593   13.79743750118679
C        19.42017644454371   22.23049382831232   15.12934799022743
C        17.14370400004562   18.78973484556170   12.92397006716278
C        17.17292031254174   18.24270945770548   14.25055563695265
C        20.00640106431777   20.41944505050161    9.55897146033348
C        21.19225652209492   20.05841113594090    8.92557563459203
H        21.95884068234662   19.56380716026822    9.50078080137883
C        21.39476605168435   20.32298691835672    7.58178023964166
H        22.32965518366396   20.04984244043460    7.11222371966685
C        20.40555457501881   20.94724738744822    6.83861457810674
H        20.56241625675512   21.15352368950562    5.78895860152970
C        19.21706276026629   21.30750542344192    7.45049752186157
H        18.43905533832868   21.79562659147469    6.88062409689529
C        19.02627202414909   21.05086742614369    8.79780835519743
H        18.10212508675792   21.34448709651953    9.27303388034571
C        18.98477685912169   19.00381025839015   18.53335515464561
C        19.33178243873215   17.76140599626558   19.05742127644932
H        19.70300162602091   16.99919910019919   18.38844447174215
C        19.20158341417137   17.49090828720136   20.40784940775300
H        19.47828025042904   16.51968667989218   20.79375663933717
C        18.71698550356484   18.46384115417032   21.26534577618970
H        18.61538965661951   18.25629375684571   22.32140569284497
C        18.36122536983969   19.70284853233579   20.76128322629652
H        17.97901696649680   20.46603544732474   21.42473299022526
C        18.49448930269699   19.96699765103136   19.40919856694568
H        18.21097596840227   20.93121327280932   19.01558151581331
S        22.67709262636145   17.06629796323282   12.45659883047737
C        21.53881024718981   16.08274812979279   11.40326493401582
H        21.07677685307646   15.34562209233743   12.06065344406701
H        20.78757019016588   16.75484289025027   11.00419644430042
C        22.28170882511529   15.40124601023954   10.27078846627999
H        22.71411619230178   16.15438573849899    9.61257571828432
H        23.09847013252842   14.80299828876931   10.68585867228103
C        21.34286801584067   14.50535191202027    9.46525406394526
H        20.84053988476119   13.81791244538686   10.14242825158908
H        21.94870787253967   13.89392537475445    8.79992288121472
Si       20.05437157620753   15.42126683391861    8.41055787751992
N        18.41666821754650   16.57643731386247    7.01384314745384
O        21.01788012080006   16.05226442768607    7.23745266712758
O        19.10342280869066   14.15872851689561    7.93772405774415
O        19.36953354107839   16.45066756289883    9.47903968641648
C        20.67704755327389   17.07042405509341    6.34526475037722
H        21.36661943780287   17.02059460662642    5.49694764561160
H        20.79564972752447   18.03869917139621    6.84509626871121
C        19.22491714513361   16.90660566977616    5.86833057748287
H        18.89112947660930   17.82326166905930    5.36300325944450
H        19.17732954032499   16.07655827791546    5.16134466582285
C        18.18336014818554   14.17962460800578    6.89203874874053
H        17.47403677819797   13.36030683164254    7.04493676837671
H        18.71465341371159   14.00920220435154    5.94618408481119
C        17.44503668185695   15.52727293705126    6.84501525248324
H        16.87622632657738   15.61543645308580    5.90796206589540
H        16.74929822862696   15.57124515931436    7.68344869970524
C        18.21913838437753   17.22494155021870    9.33174312598069
H        18.33300430440238   18.09637463589951    9.97917522868888
H        17.35372115857242   16.63635525963029    9.66234901339176
C        18.04232784557326   17.67320637447813    7.87312092307289
H        17.01086113822380   18.01032521822579    7.70294256056627
H        18.71930943608278   18.50664254811210    7.68437556813138
S        22.57842304518979   17.00572322682337   15.67003552103511
C        23.03768761669983   17.87492393959326   17.21812778164050
H        23.16675095601204   18.92381738981691   16.96391136867811
H        22.22853585907602   17.76981025117473   17.93824787806837
C        24.33726132943724   17.26907721024204   17.72232927758623
H        24.17808337730683   16.22921937496805   18.01083830634815
H        25.07205200406965   17.27580237160858   16.91613860074438
C        24.89568672440414   18.04898986010828   18.90432263666719
H        24.20268227830358   17.98545936048318   19.73961872904864
H        24.96579034977734   19.09915269151303   18.63283388574183
Si       26.59772213828219   17.40901884147213   19.40936229050401
O        26.32394566902421   15.85140860893281   19.85505678550453
O        27.49078252932512   17.56296848362290   18.03044662589437
O        27.06601059746098   18.40658545445287   20.62555070974944
N        28.93781287195782   16.52094547415753   20.07231861486568
C        27.10153683024063   15.08415113597626   20.72450512061693
H        26.73847760666195   14.05348089044094   20.67858745408906
H        26.97400990994332   15.46046824491303   21.74678386904687
C        28.58664131905764   15.14943550931992   20.32771658346933
H        29.20212506795171   14.69460622308718   21.11760623504375
H        28.72733549140359   14.58232317905077   19.40651421695742
C        28.62439548194061   16.82171737210171   17.69160613741741
H        29.06851033816123   17.27446612114857   16.79982018892518
H        28.32527437388819   15.79325485805246   17.45583656536854
C        29.63623706341168   16.81697916780080   18.85052061208486
H        30.44142396303503   16.09856206747122   18.63690355464746
H        30.07222782611706   17.81344647638102   18.93745611341478
C        28.37527404690902   18.67784898124984   21.02203471917293
H        28.33294150771733   19.23478844473478   21.96223811792934
H        28.85960748231171   19.30495844970095   20.26241908348561
C        29.17248335263411   17.37477249856440   21.20549440685457
H        30.23797566176331   17.60917166603508   21.34703773103258
H        28.80609243666925   16.86593839902456   22.09805231531674
S        20.08069225592569   24.00584871932581   13.06709420085497
C        18.77254567784969   23.82932658495304   11.79571899608419
H        18.73748875087470   24.79446624226356   11.29243398872087
H        19.08443313225098   23.05857796169066   11.09173321038712
C        17.45335168173858   23.48972193073522   12.46734554047634
H        17.56289530954508   22.55693713094606   13.02267609499773
H        17.19857653486971   24.27214736462550   13.18372148116728
C        16.30769544813561   23.31266269772080   11.48439239679185
H        16.58993542303362   22.57453278024748   10.73733754713224
H        16.12690380989213   24.24611476690853   10.95669240271597
Si       14.75309848666828   22.75660830772975   12.41612240750476
N        12.80071915549336   22.06818474478726   13.65285958694700
O        13.80338703944723   22.20466484850431   11.19045492576035
O        15.39199106948230   21.60870992384820   13.40596989274398
O        14.29468570057650   24.18263237232946   13.09656619688974
C        12.44102367689270   21.91019767818064   11.27443553675904
H        12.19159536555776   21.22040359781454   10.46345184066532
H        11.87222320474871   22.83892748713587   11.13628775604963
C        12.12037877794391   21.29359037322612   12.64394869218820
H        11.03299336256806   21.25224201648744   12.79938448613970
H        12.51974260807527   20.27924124503746   12.66916446872271
C        14.71488500221166   20.72054121900199   14.24352477368842
H        15.36820030517257   20.48326068886625   15.08812233974186
H        14.50882311477598   19.79306450219839   13.69505597024668
C        13.39864638292765   21.33552227734835   14.74245050029715
H        12.74482600684292   20.54659027880961   15.13682076500916
H        13.62227305499372   22.04029010673763   15.54385443121251
C        13.36763574653001   24.36120181461729   14.12187972933576
H        12.98172864118003   25.38316766394525   14.05892396368188
H        13.87438084552449   24.23816497043222   15.08728442824066
C        12.22178875362300   23.34389972842573   13.99025275880655
H        11.63151939705942   23.31341340832150   14.91648185816199
H        11.57255062605125   23.65466090942958   13.17080746530474
S        19.44847836503844   23.50706320908958   16.34014099950162
C        20.73640969392970   22.76154050444924   17.40949665517211
H        20.91718441537318   23.50461460536658   18.18508246345899
H        20.33327893831590   21.85334887225353   17.85642917487468
C        21.98967369968594   22.48037945561913   16.59948644675211
H        22.30689154059792   23.39068532159515   16.08848719554465
H        21.77112765968094   21.72995710719102   15.83717601184452
C        23.12941202867132   21.96332536978864   17.46106649915826
H        22.79566180776063   21.08042612298397   18.00241044217506
H        23.39181124461849   22.71081447076226   18.20614627534273
Si       24.62959185731417   21.55582742315057   16.37933156843497
N        26.56185401646809   21.04755965420950   14.98034694859408
O        24.98566084339194   23.04151947634956   15.76828431143633
O        25.68413421834916   20.97797369841571   17.49715991340581
O        23.98828883356168   20.46982218289581   15.32219328523621
C        25.80516649092694   23.31616981896099   14.67380540075786
H        26.12590305288861   24.35991988699456   14.74278831722532
H        25.22563549774344   23.18807989274086   13.75117985080479
C        27.02310325056732   22.37697984452736   14.67037808016547
H        27.54348426967369   22.43422972361489   13.70391799044443
H        27.70853190713379   22.69402786603828   15.45753156924688
C        27.05516412034138   20.78860666070713   17.32961266943513
H        27.38331986843245   20.05175237888864   18.06582157056432
H        27.56765911631106   21.74229757401537   17.51276695378592
C        27.35389692813742   20.28372147107428   15.91076546779164
H        28.43200917680776   20.34794004023306   15.70368859522130
H        27.04469753922932   19.23997317852576   15.85729546835126
C        24.68970560214149   19.61703584618606   14.46599725107904
H        24.02278856546774   19.31947701254079   13.65206037753812
H        24.98509213403387   18.71752319119246   15.01885545701183
C        25.93481583598908   20.31831983439287   13.90620854343224
H        26.60347774286363   19.57971645865263   13.44370436940633
H        25.62041434836149   21.03269084626121   13.14449308006299
S        15.90962896045319   18.20426650158466   11.83465753692911
C        15.73954980289761   19.49880251801536   10.54907908177673
H        15.55940938468918   20.44001237420763   11.06108413677503
H        16.66603273615118   19.55501043874940    9.98535708575501
C        14.57757913475429   19.14145199025735    9.64162362316846
H        14.74302878540749   18.16324903877256    9.18784008052744
H        13.65864046621083   19.08454730446145   10.22439954907465
C        14.41926524074961   20.19094645331578    8.55023411888988
H        15.33030397216736   20.23299318835934    7.95739610415577
H        14.30473566390519   21.16484111890019    9.01894986179696
Si       12.93780144302549   19.82088776301389    7.44254211867685
N        10.92674829228049   19.29580575252969    5.98227666769621
O        13.24643678210051   18.29129506397614    6.91695131971379
O        11.67170078781920   19.94738183420415    8.48961972584532
O        13.01295091067210   20.97667594974897    6.28047539207498
C        12.71614320982080   17.68326469091305    5.77802958011468
H        12.93992715372795   16.61371837732662    5.83120585900836
H        13.20182804816415   18.10284304692246    4.88821560672285
C        11.19698674485090   17.91086406846248    5.69799048581240
H        10.82419020563725   17.59827654968391    4.71195844202723
H        10.71278921374510   17.30270353279553    6.46320205148730
C        10.41123843845312   19.36585899487275    8.34279369248216
H         9.74171129677608   19.82094268738091    9.07883697141606
H        10.48617641626942   18.29117127070950    8.55010459800423
C         9.87381053523608   19.58744366516062    6.91907638476921
H         8.97760187107275   18.97100309502385    6.75787050553364
H         9.59967635654274   20.63757963776284    6.80978083379506
C        11.95137985896527   21.43150334966478    5.49814053974786
H        12.36477735630451   22.04080760999941    4.68964365261805
H        11.29543486995380   22.05903446741975    6.11368740366872
C        11.15532504463499   20.24657072166343    4.92586404033437
H        10.22245725021183   20.60780189284494    4.46974541676432
H        11.75649424537227   19.76353798675682    4.15439518835736
S        15.79628218079292   17.33114705779699   14.83134466662704
C        16.53346907338459   16.17843372173624   16.05972364095777
H        17.45134725845904   15.79830359732283   15.61427980551409
H        16.77025081697490   16.74322895833181   16.95900711345605
C        15.54973699682667   15.05847438310889   16.35172358866651
H        15.27076156142558   14.55673520458812   15.42531709629402
H        16.04756821401245   14.33093952257336   16.99437321082274
C        14.29206517556337   15.55909801109389   17.04608993754326
H        13.79862856648470   16.28477763946145   16.40336912632028
H        14.57432959571070   16.08277299744526   17.95678619674375
Si       13.10085371910110   14.15564926851882   17.46644861965905
N        11.50990524575995   12.24605553934136   18.04935369805254
O        12.96838450332605   13.32914250890306   16.05168553198104
O        13.89508385994021   13.35148444343843   18.65920728491645
O        11.73443887092024   14.93840536847567   17.93698658617051
C        11.91696248396184   12.49179802353634   15.67773935419120
H        12.22419576271597   11.94530220603635   14.78137718381869
H        11.03885708820342   13.10341632372449   15.43586383899711
C        11.57266347507299   11.51234993405335   16.81304699383213
H        10.63384766869044   10.98809059890348   16.58167169535043
H        12.37317106806373   10.77557607996099   16.89260838790839
C        13.70790032714650   12.02024204060824   19.03406660141842
H        14.22859905745197   11.86096811972532   19.98269267053598
H        14.15202915021556   11.36710107659740   18.27251825960692
C        12.21006895825079   11.70304865079911   19.18322355672142
H        12.06769076177726   10.61787380473269   19.29087850662961
H        11.83745877066618   12.19457153681209   20.08300417262350
C        10.73955188258848   14.42321016893977   18.76749915093649
H         9.88497654765486   15.10521501300615   18.73372624878125
H        11.11713173538959   14.38045814353300   19.79652438440228
C        10.32252088878390   13.01622112968869   18.30733244015203
H         9.67201622606883   12.55415170431595   19.06435377604662
H         9.76323145007763   13.10646623829051   17.37503363521124

