65
CSD_code = IBAXOY | q = 0 | S = 0 | Stoichiometry = C22H27BF3N6O4ReS | MND = 6
Re        1.28866745903253    2.67098164049641    3.63754410530500
O         1.30801482479788    4.28711570159578    3.31507732952194
O         2.53444251346357    1.60758921800184    2.25220044568295
O         1.96099409001403    1.52157898770271   -0.12061638564661
O         3.08722053611658    3.49189019961290    0.82937518749060
S         2.80631799403171    2.09178086737903    0.88014457474851
C         4.43553808682838    1.20637249437990    0.59754100471650
F         4.24665291569479   -0.10775096287371    0.74278646746787
F         4.90610787463795    1.42131882953741   -0.62970664954855
F         5.38604307215170    1.56869222232640    1.46445120087235
C        -0.42296384072504    2.51416004566088    2.35439082982224
C        -0.33312834591317    3.03673444413234    1.07176073537231
C        -1.40614492723098    2.95882594247019    0.19641427419842
C        -2.59173511070161    2.36798989894209    0.59532148699654
C        -2.70297562226623    1.86580612925160    1.87959893572499
C        -1.62425390081395    1.93930388161949    2.74868948368140
B         1.28765828778566    1.09192550995394    6.55034155614095
N         0.78898104946758    0.57093396275799    4.14518615874754
N         0.88610066080184    0.13678823832760    5.42541491335563
C         0.68095925551454   -1.18940596321624    5.48131927549521
C         0.43837146640101   -1.62459603797285    4.19345108174757
C         0.51274891672197   -0.49215988150295    3.37869284600080
C         0.71996233449296   -1.98472359603225    6.73522422846484
C         0.28645651929756   -0.49970017201437    1.91167307656750
N         0.08405670665239    2.99051689892680    5.37011036888853
N         0.29643519308878    2.28296816359080    6.50152098817013
C        -0.87205216090389    3.89911358034153    5.60981900219625
C        -1.27965334513508    3.76195853806455    6.93440599199279
C        -0.52597791774787    2.72819836125323    7.46466040255366
C        -0.57488974450940    2.17221421757986    8.84055693394396
C        -1.35320544258057    4.86985129854169    4.59964322143158
N         2.89059642666784    2.20626960829518    5.03180595275823
N         2.68369843611406    1.61750052079466    6.22071371154328
C         3.81337614557256    1.66722094771484    6.95238747095700
C         4.76351656440927    2.33094071756782    6.20006874793119
C         4.13378604100578    2.66739907223733    4.99453126026562
C         4.69454951264805    3.47129447477499    3.88145087729276
C         3.93465343447529    1.09570672963235    8.31795204319920
H         0.57800026711421    3.51533206021671    0.74546091404348
H        -1.30891503880079    3.36297939482138   -0.79954016659802
H        -3.42626113959971    2.30267604011855   -0.08737811653221
H        -3.62710601833903    1.41140808738683    2.20859580270665
H        -1.73468237682123    1.53358612088676    3.74585102479594
H         1.25811305205960    0.56695641001773    7.60144286988411
H         0.23608697001266   -2.62662768857460    3.87536144144338
H        -0.00589320233976   -1.60911597489125    7.45390202604078
H         0.48945319028488   -3.02232051430805    6.51039554178314
H         1.70660426528467   -1.93527733944911    7.19215129195448
H         0.87747928585303    0.25107740517518    1.39660982295454
H         0.54353235209381   -1.48181082214877    1.52030486038440
H        -0.76344856130490   -0.30648185763676    1.69243468852614
H        -2.02608534281536    4.33986173548364    7.43868071042432
H         0.40044624442031    2.23960233600303    9.31718997872264
H        -1.29524389544496    2.73149880757597    9.43030099451966
H        -0.87108763250614    1.12556882385915    8.82331903670732
H        -0.51446038843870    5.21134018843861    3.99415505484125
H        -2.06843410070904    4.39684820355788    3.92959917449117
H        -1.82641403476020    5.71500942983864    5.09064241438864
H         5.77354659663799    2.55181113849600    6.47816874599168
H         3.96764323235122    3.61539267290991    3.08441773865881
H         4.99358778820713    4.44924385527904    4.25866152438151
H         5.57676547723658    2.98589498888932    3.46897693505788
H         3.71383005072562    0.02990852554821    8.31155019349933
H         4.94699430782775    1.24290915320676    8.68310183532787
H         3.24002269242149    1.58132408942827    9.00114052555433

