93
CSD_code = IBAXER | q = 0 | S = 0 | Stoichiometry = C38H49Cl3NOsP | MND = 6
Os       12.28515151677281   11.71375524429242    8.57181375456727
P        13.37487125441800   13.69303582827161    9.36760897774446
Cl       11.43656963858596   12.56283096251051    6.63784801071318
Cl       10.24600610385575   12.42682411401108    9.59844985844839
Cl       14.25659902547536   11.16232336343774    7.37836023700803
N        11.22553027312243    9.86589131992089    7.73123895724637
C        12.62971197937726   10.71814509836744   10.06268312794826
C        12.48026883087696    9.94326167369237   11.17540825303949
H        11.50390295092432   10.05394844758297   11.64915325858727
C        13.38090148415945    9.09038915007386   11.77706188748508
C        13.02877035359197    8.46478350688783   13.04925084981055
C        12.32850676509421    9.17783069641477   14.02538331332985
H        12.07632598882420   10.21355002929435   13.84923148914675
C        11.99277737288106    8.58190386770173   15.22536351588474
H        11.46129118370907    9.14907108859156   15.97524707674929
C        12.33783832144726    7.26236553524346   15.47009362512680
H        12.07153275900176    6.79733135125902   16.40739488590440
C        13.02660831794806    6.54216865012077   14.50700100489523
H        13.29257341128552    5.51166240807789   14.69103100390382
C        13.37502716725414    7.13652877108033   13.30981525540406
H        13.89845895130003    6.56814342856722   12.55482791946907
C        14.67094699063065    8.80103186764807   11.17254377568616
C        15.77797986597611    8.48018315021022   11.96679047092797
H        15.67419272958875    8.45816089904595   13.04198711695294
C        17.00593751378384    8.22971943354434   11.38797865820222
H        17.85301138976184    7.98916510239905   12.01396265117434
C        17.15847034725238    8.29645768206659   10.01152475516099
H        18.12256534403833    8.10388833062424    9.56509095349219
C        16.07086581225655    8.61448761722787    9.21370906440419
H        16.17612807450848    8.68213862154014    8.14247310199699
C        14.83941658848312    8.85713983524511    9.78662175236474
H        13.99006378493154    9.08527349462795    9.15783632739451
C        10.03266454000019    9.50090799540680    8.19402244332808
H         9.71686200597547    9.95123819510554    9.12608375097368
C         9.21102749436345    8.61731536850872    7.51579166804046
H         8.24493106020767    8.36503415876692    7.92309682059933
C         9.64633383842166    8.08383986132328    6.31367544988960
H         9.02357408199745    7.40292348037528    5.75285949341987
C        10.89794194312427    8.44917366616659    5.84633214232958
H        11.28584385065678    8.06010261452313    4.91836070797445
C        11.65210685996836    9.34488873948789    6.58431315193928
H        12.63098849902354    9.65904938154480    6.24236578202011
C        15.20357896173687   13.39758328959794    9.63251264467734
H        15.49598669904494   12.90099980690160    8.69725226619227
C        15.46043117040623   12.39672433713964   10.75748913481020
H        14.78473079799797   11.54466018522702   10.64656688463679
H        15.27816092574004   12.86485145375483   11.72619000866757
C        16.90990743653346   11.92416212967454   10.70386704093066
H        17.09250512509796   11.20003965556622   11.50023409663176
H        17.08615507791944   11.42225038851357    9.75128617608051
C        17.85512625270085   13.11321785691680   10.84686299406153
H        18.89147500608472   12.77819076422620   10.77395091852188
H        17.72042139242243   13.56749893033460   11.83180856893437
C        17.56997213437576   14.15202938409262    9.76707433156584
H        17.77381164619608   13.71644338295578    8.78675452023023
H        18.22954343309227   15.01336764004101    9.89560202212951
C        16.11202070611879   14.61297250035547    9.81914517000946
H        15.95423435799695   15.35569193696620    9.03721467784134
H        15.92474830826973   15.08786374934056   10.78282443222634
C        13.36115042370376   15.13557820144693    8.19149678427472
H        13.95055318282006   15.92250510003633    8.68291576034369
C        14.03955542447503   14.77154890307589    6.86874368663210
H        15.05428341409894   14.40723252248073    7.04223206027540
H        13.47878102283803   13.97380844557799    6.38046295639747
C        14.08077138810926   15.98294665802888    5.94213851966174
H        14.55827274597142   15.70412550592232    5.00084262112136
H        14.67917602891612   16.77759926774120    6.39868056427486
C        12.66865183088454   16.49499047968774    5.68245904409687
H        12.69621158267831   17.35688698003482    5.01205340974981
H        12.08545593903960   15.70889048366764    5.19956037327389
C        12.00309077057373   16.87556989366831    6.99993049131877
H        12.56607440651001   17.68766756016784    7.47054297952319
H        10.98857282260670   17.23531908878746    6.81700613556258
C        11.95172298331014   15.67587467442195    7.94300825654353
H        11.33431763172788   14.89554347798469    7.49643504087935
H        11.48429002317370   15.98029286433694    8.88174907940560
C        12.57636080705305   14.40916131535863   10.89832212019174
H        11.56285352987411   14.63791638933782   10.54117215652234
C        13.20368425446138   15.68988931367007   11.44617763297229
H        14.16423182696416   15.46119758436377   11.91073863974751
H        13.37030284568726   16.42441674758717   10.65763841179176
C        12.27822179941892   16.29168537231679   12.50383997058670
H        12.71730957231150   17.21284788319608   12.89391354512247
H        11.32057228312824   16.54524305487131   12.04444428720469
C        12.04645618946693   15.30230958619851   13.64096826457912
H        12.99487235974245   15.10457802300404   14.14714065709948
H        11.36141101767402   15.73319760237963   14.37365380102623
C        11.47869278800607   13.99392290332705   13.10000522245547
H        10.49784609837652   14.17110543536666   12.65633582505581
H        11.35244192466132   13.27988463369774   13.91644904667743
C        12.40404968382869   13.40465798104755   12.03726468754737
H        11.96628921855097   12.48988010167436   11.63973657929735
H        13.36578648278192   13.16311454313790   12.49061919995680

