137
CSD_code = IBAYAO | q = 0 | S = 0 | Stoichiometry = C51H80Cl2OOsP2 | MND = 6
Os        4.27713976252401    8.19523536451029   12.30289108977115
H         3.29019463688620    9.04188588358025   11.46433304481879
P         3.50433283643204    6.22946527285152   11.04404644955973
P         5.39634047516537   10.25372306702284   13.05192610093310
Cl        5.84707144542703    8.39344795904539   10.60419175945569
Cl        5.86579769104979    6.86303256098690   13.59113789485822
O         4.32600439006910    7.95453443939611   16.15868948250140
H         4.88357557752634    7.63690240584437   15.42212318475918
C         3.12001737912551    8.04983961080589   13.67361117056863
C         2.29183788606447    7.96912595627898   14.84789279759090
H         1.39341516173439    7.38748299360778   14.63097619124785
H         1.98796578560109    8.98240322591271   15.13478009576612
C         3.06732508450337    7.34235008232164   16.06122340402363
C         3.15176990596546    5.82729811999839   15.90550487093473
C         4.36335147449199    5.16588834412127   16.05116205217873
H         5.26356481886204    5.72383589118046   16.25430539972339
C         4.43132379400680    3.78852554597895   15.93500501126434
H         5.38457728461529    3.29334381180226   16.04461482008243
C         3.28992933023266    3.05053929816551   15.68101176410699
H         3.34234673461824    1.97574455295562   15.58670902918533
C         2.07257061325992    3.69942482815941   15.56414642194665
H         1.16994437183312    3.13127160102805   15.38732547435230
C         2.00349503747189    5.07464970200039   15.68418948665484
H         1.03706014141291    5.55563077739986   15.62810746608734
C         2.33804186093739    7.59515314146961   17.37391751432864
C         0.97327098279528    7.83500464025356   17.45816961438181
H         0.36068584461266    7.89181415524672   16.57097983935250
C         0.36847771113779    8.01247936258301   18.69127274022526
H        -0.69457150169694    8.19931396774341   18.74024791966068
C         1.11566830779462    7.95406246651913   19.85346952999416
H         0.63960881996422    8.09354970024075   20.81277688092756
C         2.47719803184484    7.71541035482210   19.77649950873889
H         3.07075101810695    7.66720865930091   20.67741967986674
C         3.08129629158592    7.53336281807188   18.54723274321648
H         4.14203836664613    7.35114904126540   18.48073857635137
C         3.45073250303008    6.58967908244304    9.20553131176058
H         4.41024824095127    7.10304981139244    9.04764533852831
C         3.39426677131624    5.41420840405916    8.22847269812133
H         2.42708015765126    4.91161912153958    8.28792507259585
H         4.17330705707987    4.68119790862454    8.43669481373597
C         3.60537474929632    5.93751214111194    6.80583764916043
H         4.59996573959086    6.38372215945051    6.73485107177734
H         3.56298503498150    5.10283868693720    6.10208655383398
C         2.55923153505395    6.98336801272027    6.43475980776388
H         1.56866227209750    6.52089307682343    6.42889067415808
H         2.75532036392230    7.36258886903489    5.42987749717657
C         2.57649284377648    8.12894965473516    7.44166394007929
H         3.54102846036089    8.63902508088585    7.40335221969099
H         1.80120766343595    8.85735058452088    7.19405242903967
C         2.34620262135496    7.58431100412684    8.84845207467798
H         1.37577783676410    7.08443490807866    8.87115906152233
H         2.33161112659758    8.40286723481409    9.57174523579968
C         4.50945452590538    4.65965699018328   11.10854978468603
H         4.05423637012486    3.98600628020886   10.36949728136197
C         4.47578252409251    3.96217021271639   12.46827365023353
H         4.91058156987598    4.61114056731531   13.22825051093429
H         3.45130496227042    3.73420358079426   12.76829040901317
C         5.27241166804505    2.66082981746327   12.40487962321222
H         4.80867734591993    1.98150847867844   11.68275739179263
H         5.24687413167911    2.17690481623110   13.38297075891836
C         6.71439699069237    2.93261645757514   11.99215508226293
H         7.18230776053539    3.57883192805319   12.73715038480070
H         7.27720537251939    1.99721350687491   11.95033127222863
C         6.74673927775078    3.62815473412385   10.63570792185247
H         7.77846272335459    3.83855087997634   10.34659129806515
H         6.31400424810105    2.97010452168176    9.87553667189451
C         5.95860223918241    4.93197301892877   10.69848528261251
H         5.99966620607734    5.43913811845014    9.73140806088369
H         6.42634879345233    5.58559375383032   11.43545935718148
C         1.83011409018477    5.63267188290410   11.63454395120280
H         2.05567825621453    5.33321624661645   12.66997869174933
C         1.23539551051934    4.43202467745622   10.90069174752937
H         0.91465718843866    4.73275814085270    9.90180574050754
H         1.96455021560872    3.62808230519978   10.79795203175806
C         0.02397973959295    3.91270276526914   11.67519368349638
H        -0.40471287966366    3.05322153128115   11.15513788655228
H         0.34822950141445    3.57862644293135   12.66364375864577
C        -1.03043610778861    5.00440075502820   11.82931465550368
H        -1.87308795741434    4.62723706936131   12.41232874865616
H        -1.40736410613105    5.28653343727829   10.84353687052377
C        -0.42981485124975    6.23122852319096   12.51004742013543
H        -0.11911797512727    5.95771010409336   13.52085009798601
H        -1.18084092506494    7.02013520208977   12.58807231702394
C         0.77397495153233    6.73538254292813   11.71631387987508
H         0.43401970542817    7.01082740274474   10.71910733443722
H         1.20543456570270    7.62739467703580   12.17885227925855
C         4.44789087656861   11.06660289945868   14.45003989381353
H         4.31755452486451   10.22706972250834   15.14988507931984
C         3.05905511377563   11.50109021541359   13.98006348421571
H         3.14647536598748   12.38568260088427   13.34636960976536
H         2.60525512213155   10.70229154320361   13.38435350985229
C         2.18113313728732   11.84945052697852   15.18101475897809
H         1.19153012283285   12.16187100817779   14.84029667981762
H         2.05610956299600   10.97015882945007   15.81764278261554
C         2.82578240702205   12.95760541254150   16.00792779903353
H         2.21140702400039   13.17344879116793   16.88424813951270
H         2.88709950212506   13.87040688618698   15.41029367595237
C         4.22692116660510   12.54053507056497   16.44296474674722
H         4.69104933077853   13.34362279154084   17.01966245948810
H         4.16111076984480   11.65948253964586   17.08524512751785
C         5.09231145690524   12.21817253717890   15.22404970981629
H         6.09729348602583   11.96531860944542   15.55816623439014
H         5.15772290881445   13.11096607688649   14.60379803852675
C         5.66509444649044   11.49681450719464   11.66953437289021
H         6.50016061160744   11.05208357717195   11.11166345901018
C         4.49674273033788   11.61104921171389   10.68949169616698
H         4.18035916478547   10.61889376574825   10.36928637807487
H         3.64429669228826   12.09798732526880   11.16643486679544
C         4.92441095269645   12.41057266961294    9.46042979780542
H         4.08444585425814   12.49146494827703    8.76721699415807
H         5.72791391791841   11.87570304536374    8.94925765047210
C         5.41058624773029   13.80115791767013    9.85409030065392
H         4.58248150386686   14.36569585473406   10.29017777520161
H         5.75381672838145   14.34228936888874    8.96992951094871
C         6.54055030448927   13.69472442756618   10.87234594606896
H         6.86251972238557   14.69255781759510   11.17985887884298
H         7.39705680788382   13.19324530497372   10.41599158255164
C         6.07886629019747   12.90479048782715   12.09670656925062
H         6.88445253307817   12.88330561583637   12.83198317364795
H         5.22356495732925   13.42182937381870   12.53480406890962
C         7.12605179408867   10.16124811971243   13.75346046069407
H         7.42001775838792   11.21593951902616   13.86226859724645
C         7.22189817076237    9.48913330817963   15.12520469704864
H         6.47794204402298    9.87337277314968   15.82253795092903
H         7.05053157408148    8.41985146847531   15.01325868315267
C         8.62481956682245    9.69764858325512   15.69156814106826
H         8.82742415804728   10.76727935001827   15.80475083334395
H         8.68994769476763    9.24020335810123   16.68083758806808
C         9.66229118845030    9.07604902121207   14.76205440121666
H        10.66861807931769    9.24102536252838   15.15427003526427
H         9.49211062537646    7.99888119604929   14.71008646539736
C         9.54352775658439    9.66825000159131   13.36154524281265
H        10.25783513002835    9.18496254408007   12.69149632823611
H         9.78644219055770   10.73490199662212   13.39389178327032
C         8.12942362836087    9.48616597982070   12.81695913154481
H         8.07708729947374    9.90067697331050   11.80805664106663
H         7.90388203490155    8.42081245124089   12.75223597322486

