49
CSD_code = IBAYUI | q = 1 | S = 0 | Stoichiometry = C20H25ClIrN2(1+) | MND = 8
Ir        0.86041769132750   14.62446668136968    4.19797507564885
Cl        0.20287134656276   16.67061159879363    3.26836536109781
N        -1.03628324359432   14.47321903774431    5.07850258760022
N         0.00130803891061   13.75519122822646    2.44812497881298
C        -1.59828833634076   15.53832920513877    5.65361939517322
C        -2.76755508615485   15.45751081308357    6.38989612828589
C        -3.38420823906845   14.22651368178162    6.54448519750780
C        -2.79959920929606   13.11983002437261    5.94569382190210
C        -1.63155231578292   13.28626713281597    5.22615114078435
C        -1.15946830472993   14.18917733618648    1.94299311000157
C        -1.67371384242367   13.73099171974233    0.74364450463195
C        -0.96839788881153   12.78195929294986    0.02109126979319
C         0.22880938692024   12.32251755105912    0.54653644166144
C         0.67149390481214   12.83160976654867    1.75342722116042
C         2.56927381726014   13.21606983210319    4.79706207391519
C         1.96989134526400   13.74706356605477    5.96534731939206
C         2.07740057459018   15.18635104610025    5.91332079471080
C         2.84130797631057   15.52408623633549    4.74595224271509
C         3.07018802368987   14.32312321618646    4.00821796460671
C         2.81799557728866   11.76345359561631    4.55710028360208
C         1.45480502708379   12.94951364563891    7.11423027622878
C         1.76708978918870   16.12807770970973    7.02957292850821
C         3.38030541597275   16.87232251308875    4.42875893071541
C         3.95705395327155   14.22663720477648    2.80865424030674
H        -1.10509820221314   16.48681485319789    5.49511821782216
H        -3.18232569029461   16.34901501805305    6.83131821476521
H        -4.29544863923597   14.12944871578118    7.11328711052769
H        -3.24063625565055   12.14020146661635    6.03377957372752
H        -1.15877931402839   12.43878541930916    4.74880195143801
H        -1.68660602491917   14.94677416956984    2.50559930145104
H        -2.61045017030477   14.12339063441837    0.38297488618448
H        -1.33866642812373   12.41276384257060   -0.92214681221785
H         0.81809172123438   11.58260612876844    0.02934988528988
H         1.59895401714056   12.47944710182384    2.17601622702043
H         3.52120963068359   11.39524568593428    5.30511694909167
H         3.25340560034892   11.58325013601462    3.57804808369255
H         1.90563252901176   11.17552301053818    4.64853164291991
H         2.27257310717411   12.75660062003368    7.81019488181574
H         1.06151900454699   11.98968686161522    6.78753667952009
H         0.67674023606296   13.48297250401921    7.65540534920496
H         2.64601892119508   16.24176738960189    7.66544895314379
H         0.94903542461477   15.76204350791157    7.64541542949938
H         1.50430134624798   17.11030200366080    6.64446003728924
H         3.69353519241912   16.94032610066279    3.39123621760099
H         4.24395600496277   17.06711817627846    5.06635891080058
H         2.64125149460174   17.64732481037242    4.61798249931385
H         4.99518420069886   14.36301997763310    3.11471948986806
H         3.71772028767060   15.00114183201343    2.08286052107385
H         3.87603660388562   13.26073639818966    2.31716251040605

