97
CSD_code = IBAYUF | q = 1 | S = 0 | Stoichiometry = C46H46AgN2P2(1+) | MND = 8
Ag       -8.53663450754989    9.79439271002775   -0.78337497303981
P        -7.91116893254689   10.78069519280865    1.37047474983682
P        -8.78379956074915    9.32901888527716   -3.18045746318022
N        -7.14407462084539    9.84585431004446    2.52250995800077
N        -8.83387232706698    7.74420763785981   -3.72965220266168
C        -6.66789482561812    8.47985950956704    2.29091372124981
C        -6.98741908515572    8.00660351623556    0.90206158570492
C        -8.21428241023567    7.36128149090347    0.64909488911426
C       -10.39161122837359    6.57127813064761    1.39538078362428
C        -9.18606890824139    7.14329695243116    1.66604619964545
C       -10.70933366260771    6.17894655879537    0.08311699351253
C        -9.80948126999519    6.35983891114673   -0.92268176592007
C        -8.53135609588312    6.94145509525782   -0.68987650842550
C        -7.59371331432845    7.12751432886980   -1.72530518672395
C        -6.38274036251743    7.80037477188014   -1.47865037628050
C        -5.42167628980433    8.05583050474744   -2.49599623506642
C        -4.30456444736802    8.79546498523309   -2.26106618138816
C        -4.06796095692023    9.33359970377910   -0.98379831647912
C        -4.93143589644948    9.07595806410958    0.03526876747740
C        -6.10232066490589    8.28949103105792   -0.15451587053747
C        -7.97406682170810    6.72371159395076   -3.12090554966773
C        -7.09244190722527   10.29017663289493    3.90901208426264
C        -8.15980952370099    9.65703401164264    4.80643661290998
C        -8.23570354120972   10.37337578032793    6.14808037079901
C        -9.35509510826691    7.37070695512156   -5.04093952725504
C       -10.59198114618158    6.47522850471310   -4.93799234035881
C       -11.21610748570673    6.25370100756430   -6.30906327110952
C        -6.87290369281111   12.26632788400332    1.16672426382400
C        -7.36837478492334   13.24284634438407    0.30488746214317
C        -6.62958023062209   14.37973137579202    0.04325940860725
C        -5.38282411782447   14.54110513928062    0.63073878014119
C        -4.87711583736110   13.56308238781392    1.47066415896417
C        -5.61603545805364   12.42244028551658    1.73559233213507
C        -9.38001385547713   11.45673970942840    2.21991000436368
C        -9.38095068971811   12.63084978950022    2.96392328629760
C       -10.53529835084216   13.03069915082547    3.61447837348187
C       -11.68839314363322   12.26816928254541    3.52418039134126
C       -11.69759033901077   11.10590376558014    2.76796589574312
C       -10.54820305426104   10.70542134955538    2.11437927832035
C       -10.23529897155664   10.02452652114733   -4.02078683046520
C       -11.47244470503732    9.66323215645330   -3.49108603537240
C       -12.63725855193289   10.12987970755208   -4.06806813569864
C       -12.57075253921148   10.97631098252469   -5.16500137963206
C       -11.34176665524895   11.36064205179305   -5.67535311067700
C       -10.17052383477508   10.89048218328791   -5.10549915728305
C        -7.36126668548408   10.19318219054388   -3.95077465082203
C        -6.86457173094197    9.87424553288490   -5.21078741323062
C        -5.74609279981175   10.52712015014231   -5.69738386711221
C        -5.11727318442290   11.49701338929890   -4.93274144921364
C        -5.60183305352912   11.81344574905277   -3.67304830014008
C        -6.71416446645408   11.15653968338275   -3.18382728398158
H        -5.58523895343956    8.44703069141141    2.46310660972024
H        -7.11289731308366    7.80399102608912    3.02540021167777
H        -8.97998595481567    7.45220748803903    2.67771108457777
H       -11.11177427823793    6.42315247417879    2.18551408746260
H       -11.67144678046347    5.73464901310936   -0.12118191786082
H       -10.08429676594921    6.06227079233061   -1.92040604830706
H        -5.57614776899238    7.66673313484582   -3.48894188326335
H        -3.59817916088525    8.97837848436307   -3.05584398483068
H        -3.19297393341276    9.94231030168920   -0.81639821723071
H        -4.72579727514160    9.49215814237218    1.00737794093321
H        -8.51469597797747    5.77361077878523   -3.10315212405823
H        -7.08687123969447    6.56046960116122   -3.74157712947501
H        -6.09851869244466   10.06754074982852    4.31404922475147
H        -7.22489482976506   11.37524699626189    3.91858457636212
H        -9.12821941501840    9.71920954118551    4.30446922419202
H        -7.93033412648589    8.60334703931881    4.97680477450468
H        -8.51563207320604   11.41510107758816    6.00825632778639
H        -7.27518906527213   10.33828833041609    6.65648111964169
H        -8.97811216582114    9.90230968027715    6.78633438296461
H        -9.63399976811196    8.27630406560357   -5.58446839809045
H        -8.57684503588083    6.85375477406994   -5.61536564881288
H       -11.31755283492002    6.95651080265465   -4.27896520748241
H       -10.32383925826772    5.50958963217683   -4.50519644656482
H       -11.51915085423265    7.20197425878886   -6.74740059349149
H       -10.50823147877357    5.77396142914999   -6.98078880306090
H       -12.09312150097537    5.61805088268169   -6.22599956962396
H        -8.34644787580328   13.09758501688180   -0.14748750394938
H        -7.01949498837245   15.13903335072810   -0.61788105323777
H        -4.80404124623167   15.42936381639586    0.42868737134820
H        -3.90404212964987   13.68879523829087    1.92143838668360
H        -5.21863684381094   11.65656889355418    2.38549800704290
H        -8.48684257573857   13.23656660445545    3.02442216078100
H       -10.53488040321233   13.94152250139428    4.19395600217380
H       -12.58414735279298   12.58376511891418    4.03647580562964
H       -12.60006520043828   10.51882382213322    2.68724884394469
H       -10.54030045952970    9.79787965888651    1.51276569897533
H       -11.50358941628156    9.01323404873853   -2.62289420805999
H       -13.59624502596696    9.84220049570760   -3.66392839726512
H       -13.47931006085306   11.34373775791578   -5.61671859159815
H       -11.29347549533713   12.02869185337573   -6.52195645517592
H        -9.21138213462489   11.19396298176654   -5.50145557612629
H        -7.35066229674258    9.11607030463013   -5.80831064228322
H        -5.36318766999976   10.27929807110026   -6.67606964945047
H        -4.24527671292452   12.00314937484804   -5.31752181327043
H        -5.10969095160394   12.56317590407305   -3.07193119317345
H        -7.09868902466522   11.38859045848050   -2.18470775530693

