65
CSD_code = IBAZES | q = 0 | S = 0 | Stoichiometry = C27H35ClIrP | MND = 8
Ir        5.26271850162754    8.38040965270455    5.89298446953832
Cl        3.13786728386103    9.24806838448621    6.43979092484360
P         4.73694051249031    8.81526028098647    3.72477085251972
C         6.42914252495434    9.73572730425213    7.36194953010421
C         6.03590237048258    8.48943844757011    7.98087928866332
C         6.72712255925726    7.43639690758443    7.33482021140910
C         7.43932300293448    8.00347686026761    6.22853842848201
C         7.31378101552686    9.44273024838173    6.31576300789636
C         6.02985733971885   11.07737329292668    7.88517459036728
H         6.48300499556451   11.24923119309981    8.86332669756938
H         4.94796292354716   11.13254078411962    8.00192266055554
H         6.34388042477507   11.87470937139679    7.21506347259541
C         5.24717570966296    8.40589261248818    9.24768860679051
H         4.32065437862945    8.97189883618481    9.15909406876364
H         5.82264510724314    8.82598234208495   10.07523928429562
H         4.99821863235000    7.37503485143178    9.48808779236001
C         6.81346920319874    6.01765281317464    7.80383200013974
H         7.56152765798689    5.94085676240485    8.59570134697967
H         7.11006941422390    5.35174441238781    6.99634005723916
H         5.86219163286314    5.67163412386249    8.20347940461324
C         8.48041236816597    7.30923368892313    5.40662268287426
H         9.44115447645455    7.33507772926293    5.92619947708992
H         8.60451140721267    7.79947506534581    4.44311957259040
H         8.22005221760838    6.26728344049285    5.23279898332214
C         8.15806740180547   10.39828191508887    5.53601824813986
H         7.80874190389435   11.42094948051617    5.65276270258451
H         8.16730022992081   10.15409180286725    4.47473414496609
H         9.18724213615994   10.34711555752321    5.89817908149382
C         3.90911570001968    7.31678715025069    3.08301330782878
C         3.70240061754580    6.36750815691563    4.08746945321250
C         2.94515758697898    5.23661818027258    3.80137088729313
H         2.77117678172903    4.50210897927641    4.57409647465762
C         2.42011971944781    5.05126885502753    2.53706075742240
H         1.83150361575624    4.17198811965275    2.31968284193404
C         2.65069449100653    5.98733506264598    1.54421675503550
H         2.24466835677191    5.83260796009568    0.55461885854451
C         3.38917335869862    7.13527280974672    1.80015859920233
C         4.32427939013811    6.54438818832100    5.43778886696307
H         5.08284466765422    5.76013467404945    5.55216868832413
H         3.56021929691691    6.35049540883040    6.19917343941521
C         3.59969225600054    8.12715951160355    0.69621155360723
H         3.76972022523535    7.61082694012580   -0.24732193659037
H         4.45199009775080    8.76986436571568    0.90054914446988
H         2.71131760353713    8.74725000083962    0.57644846048450
C         6.13478817645211    9.27179600091783    2.63154002757480
C         6.50516721703676   10.61697918230476    2.48797634587741
C         7.53944454472551   10.95165606587724    1.62264750879473
H         7.80656323142895   11.99165217342472    1.50085725004014
C         8.24076917390365    9.97659307114400    0.94066041369271
H         9.03662262275850   10.24989856821943    0.26413696235488
C         7.94972861577651    8.64601376076116    1.17526030649935
H         8.53818869104976    7.87563185692256    0.69795595438324
C         6.91892948554800    8.27621796121205    2.02885282504493
C         5.86923983952044   11.71233523184050    3.28855258805802
H         6.59661141146665   12.50270625675385    3.46682014829456
H         5.52513390884629   11.32961131684531    4.24742682702887
H         5.02747567605664   12.15686611271472    2.76018395516647
C         6.70712713858131    6.82012141547956    2.30168504961639
H         5.95821171390883    6.40060598515980    1.63175875693817
H         6.37181827330112    6.67110894530247    3.32584910696607
H         7.63715156142289    6.27589191202585    2.14756255822405
C         3.38125791982266   10.01004716759168    3.35582695412392
H         3.47008271905566   10.41965309350306    2.35297519139507
H         3.35556628942933   10.80507506647707    4.09482086016849
H         2.45231069259256    9.44885633032557    3.44806266917350

