65
CSD_code = IBAZOC | q = 0 | S = 0 | Stoichiometry = C27H36IrP | MND = 8
Ir        8.69539327263986    1.23851818265997    7.08309364507976
P        10.43703733379143    0.62377365921267    8.39735434563597
C         7.76808207395009    2.71362221963121    5.65767923636316
C         6.75370718120291    2.15973435862811    6.49611766472048
C         7.01270851050771    2.58435144320120    7.84172748341921
C         8.18637266814144    3.38402089972857    7.82027389393550
C         8.67129475632161    3.43909264137400    6.48194147637866
C         7.74571669784189    2.71732591908460    4.16047058544319
H         7.38298483582821    1.76908814286931    3.76727848159260
H         8.73644987033465    2.90171684847216    3.74875462442811
H         7.08084891376439    3.50775561747599    3.80303264118856
C         5.47817359437388    1.53803147790835    6.01494162495960
H         4.74254430770403    2.31860350169624    5.80420724792789
H         5.05898710291104    0.86988210370589    6.76397637414161
H         5.63882295001315    0.96815805488548    5.10227339878578
C         6.05176695965054    2.44679466011422    8.98438721603760
H         6.55750737149153    2.54200143652370    9.94380818908671
H         5.55070291936064    1.48075610886556    8.96009779679645
H         5.28678548114035    3.22563120786292    8.92727530409880
C         8.69610410694728    4.23868968496559    8.93721446055778
H         8.35611158774854    5.26693416346691    8.78961736289198
H         9.78500510665380    4.25160427262667    8.97553928648025
H         8.32615718422220    3.89865182902579    9.90128403296502
C         9.75932199643791    4.34829590550515    6.00079957815858
H        10.28414769980091    3.92710863760511    5.14310751525738
H        10.48718078495251    4.53575720580072    6.78848093033492
H         9.34027174492194    5.31043345079945    5.69379039785039
C        11.64236721179325   -0.21601909676425    7.30238408477986
C        11.16064471639683   -0.34099064933642    5.99431033737742
C        11.87640877459128   -1.11136821405134    5.08429980271746
H        11.50568799024769   -1.22487115302889    4.07590147988590
C        13.05761922524038   -1.72169991877539    5.46054189759917
H        13.60919344638822   -2.31908609376747    4.74912818806224
C        13.54232064727941   -1.56042327022701    6.74602515726600
H        14.47371690891645   -2.02813856160431    7.03264692928566
C        12.84308541303933   -0.81445927880153    7.68694344227040
C         9.93269229615304    0.40028583112544    5.56946170238042
H         9.38001706556411   -0.21802338190314    4.85394535406197
H        10.27776320412466    1.27757033690932    5.00645139859604
C        13.40891606028761   -0.68602316535387    9.06967320215481
H        13.22402929244635   -1.59856236797753    9.63634749117552
H        12.96881016803960    0.15344339659998    9.60048542980583
H        14.48735120808267   -0.54180368174007    9.02262039418323
C        11.30291981240269    1.92328792284331    9.35910264917350
C        12.31976038440633    2.68753482662358    8.76589346292642
C        12.97682920103877    3.64970844525905    9.52149354586888
H        13.77224477397642    4.22191729323922    9.06530947211979
C        12.62014107568275    3.89481622134777   10.83380440978086
H        13.14788663557966    4.63793066765151   11.41283976021104
C        11.54544092089591    3.21892353140492   11.37832406015347
H        11.21323123053102    3.45437568457260   12.37947347202138
C        10.86320548396962    2.25370702263607   10.64936953545556
C        12.70349737664413    2.52980938025271    7.32790667736177
H        13.12151212872052    3.46204514899712    6.95068795595154
H        11.83668055170947    2.26126925168690    6.72920087766175
H        13.45549977688164    1.75147279469560    7.20520827271012
C         9.63182701231744    1.64818859717095   11.25083534689703
H         9.86691884291695    0.75887064553060   11.83347605078433
H         8.92369265070355    1.38310699091303   10.46730038724709
H         9.16386083820065    2.36472734506365   11.92454177888260
C        10.19530976686010   -0.79401618679767    9.56807713901152
H        10.30355291756138   -1.69423114366362    8.96496405706289
H         9.18898540438595   -0.78371745721287    9.97477643976046
H        10.92778370444910   -0.80000383981272   10.37042404785741
H         8.14390886893990   -0.18608750739369    7.27959951494686

