67
CSD_code = IBAZIW | q = 0 | S = 0 | Stoichiometry = C28H35IrNPS | MND = 8
Ir       14.41587196455012    2.70450539870553    7.18028228907853
S        15.28506163916989    4.95808809542830    6.66675048272941
P        12.34933739421599    3.40694399003411    6.52415119935619
N        15.60137823595860    4.42323676766595    3.93676777374507
C        14.76782737400699    0.60821008785327    7.84778253800659
C        15.97292072847794    1.35680388467374    8.03597995337095
C        16.43350984572029    1.75368434197508    6.74855433440652
C        15.55487959083082    1.21496572921053    5.75514776927924
C        14.53064140906368    0.50922805278325    6.42656225124852
C        14.09529162037768   -0.23717361873942    8.88457878064307
H        14.61345194522650   -1.19503533567785    8.96699414981725
H        13.05945616145969   -0.43606279638005    8.61941921143807
H        14.11717372415805    0.23866622030516    9.86314151390743
C        16.73597245929540    1.49348397187609    9.31648245746853
H        17.44358240264087    0.66769493410854    9.41699972998293
H        16.07022907737836    1.47513897632411   10.17660739946796
H        17.29931958277306    2.42415398169499    9.33958000050707
C        17.73157119512163    2.42946358453582    6.45329598045203
H        18.00691238670968    3.12487789075252    7.24427396400043
H        17.68024210430006    2.97626983088916    5.51376374702528
H        18.52256019067406    1.68055022076105    6.37018587935560
C        15.82935880227316    1.22477169851633    4.28607469602378
H        16.79343357420769    0.75420955047733    4.08757436508427
H        15.87062987330608    2.24229914685829    3.89157887720325
H        15.06221921652515    0.67783235573839    3.74365667759655
C        13.51478889923689   -0.39398660972015    5.80575570117577
H        13.28510923206675   -0.09575881320723    4.78638843886274
H        12.58552619547374   -0.40036203686467    6.37186607746687
H        13.90453097096515   -1.41403355111713    5.78500518094418
C        11.60280788355065    4.21454775745267    7.98555747646462
C        12.49508230386520    4.28295666585907    9.06025301203195
C        12.14577879767585    5.02672394058844   10.18185849420372
H        12.83494011311060    5.09661954737986   11.01071160747511
C        10.92346053426288    5.66801528999877   10.23987494431448
H        10.65750597753304    6.24708230091816   11.11198107127443
C        10.03268610716769    5.56132445230949    9.18654358539654
H         9.07133689119032    6.05165045809976    9.24379741762932
C        10.35666384718770    4.84162845576427    8.04361217144786
C        13.78166385901158    3.51887422152306    9.02552440054655
H        13.67663553307930    2.67954928842375    9.72398559240417
H        14.57799097332293    4.15391105742305    9.42985645101217
C         9.35792764052196    4.76194085462309    6.92890213086666
H         9.37935652048073    5.67806384395877    6.33884992218332
H         8.35249089397661    4.65588351944290    7.33332479264836
H         9.56107853751680    3.91706786334959    6.27605536748527
C        11.22380250860775    2.11654788277289    5.87787084012266
C        11.21822450077692    1.81427883500915    4.50856817851485
C        10.30720323238256    0.88457150061998    4.02245715634467
H        10.29078412118929    0.67044635224496    2.96344478194922
C         9.44459909687878    0.21968265158807    4.87169798929963
H         8.73318357681214   -0.49134405022664    4.47930733273251
C         9.54144111997243    0.42965600106046    6.23430821505328
H         8.92170846550334   -0.14045061721572    6.91149283528133
C        10.43799067879081    1.35315928658205    6.75479864153428
C        12.20760254520091    2.40365720801571    3.55125720819300
H        12.43141192826948    1.68247319680637    2.76664665724694
H        13.13527398772448    2.65992691772912    4.05890428524038
H        11.81449268016682    3.29506003808482    3.06536953333525
C        10.56522493567627    1.46547591614541    8.24215720524855
H         9.92234849786143    2.25143814193354    8.63531567158452
H        11.59272905720835    1.69402634757397    8.51841596404575
H        10.26965449832705    0.52788591261345    8.71040546346308
C        12.19486291009011    4.82763355863465    5.35540766832556
H        11.23218072937982    4.81870806141645    4.85108168817809
H        12.99636630102412    4.82555581872498    4.62173720988699
H        12.28800660296788    5.73304894914171    5.95476434214688
C        15.46911381573182    4.63365662446230    5.06670127550800

