43
CSD_code = IBAZIX | q = 1 | S = 0 | Stoichiometry = C16H21ClIrN4(1+) | MND = 8
Ir        2.34279772437277    2.72668090700147    2.11874514095425
Cl        1.23753217407541    1.01783325515949    0.93551340099271
N         3.71543483267674    1.17311842042588    2.53946059327745
N         3.59046329183714    2.70766477552341    0.42890658528213
N         5.09877318893262   -0.35498798014443    1.76449877932782
N         4.95742845488591    1.58808522138462   -0.88441208682833
C         3.89672817965445    0.23352622765269    3.49888667073164
C         4.75328092679976   -0.72247732473958    3.03065783532758
C         4.44840936248348    0.79530751612492    1.48698252366756
C         4.38434575746215    1.63534442608583    0.33694298552510
C         3.65546656564970    3.34613522757157   -0.76491966077706
C         4.50113346886963    2.66111787807407   -1.59055004552664
C         1.72301177914873    3.43681342257002    4.14250900580287
C         0.57002854397910    3.26745250666513    3.32164920394847
C         0.69577108706910    4.16378307758191    2.19159741332101
C         1.90230858664171    4.91768074092674    2.36360450156763
C         2.56088258408464    4.44542118930778    3.54232862045449
C         1.94495657612708    2.82658309552145    5.48454430344724
C        -0.64540888081160    2.46097551312399    3.62124663697455
C        -0.39029442264899    4.40853029079608    1.19977681122701
C         2.34224811906297    6.07949703550694    1.54114637301731
C         3.76084531941412    5.06440405911318    4.17513042736746
H         3.40996140654734    0.29013543341076    4.45049590943473
H         5.13298365742196   -1.60900072740929    3.49411890703945
H         5.69575094288421   -0.88144282759788    1.14661630362882
H         5.57870333431091    0.87887333318596   -1.23993960369922
H         3.10183193691142    4.24028210610559   -0.96357674801727
H         4.80367696377271    2.85442046567924   -2.59852471914780
H         1.51640137575105    3.47988028805850    6.24614048127048
H         3.00490273969640    2.71401485708883    5.69895417882584
H         1.46105676316569    1.85654308206805    5.56371863914656
H        -1.46617004923554    3.13041886400070    3.88102551252397
H        -0.47911469857494    1.77853048520889    4.44932606564983
H        -0.94800408372636    1.88270764195153    2.75049184798203
H        -0.03737027885432    4.98852518207773    0.35196900589699
H        -1.20292881105920    4.95587867041776    1.67900906853937
H        -0.79090970039005    3.46605417601928    0.83294667639450
H         1.87395005160040    6.07281638801266    0.56096415817559
H         3.42274440690372    6.09512590799638    1.41748627391222
H         2.05021037570222    7.00055991251546    2.04759091104251
H         3.44445168044269    5.85981295614567    4.85155214354208
H         4.41951585237093    5.50018587361297    3.42854974045246
H         4.32361290397891    4.33648837191265    4.75393929844002

