78
CSD_code = IBECUP | q = 0 | S = 0 | Stoichiometry = C32H42IrN2P | MND = 5
Ir        1.75517638310425   -1.48622667132807    8.92430477274644
P         2.38550553898605    0.67098995255880    9.25371611074453
N         2.24091163777859   -0.99998314246005    7.01987601215932
N         1.44517109408169   -3.49146290915876    7.90209444823745
C         0.42412396672986   -1.90593883042639   10.50546220872608
H        -0.14840558670981   -2.81563955961357   10.30228337481810
C         1.75489979840628   -2.09214502456017   10.95788854724286
H         2.07761749314881   -3.12792101927133   11.07570591925669
C         2.35931324522812   -1.21676829154023   12.03178239766893
H         1.94567181169567   -0.21238922624631   11.96866663579852
H         3.44130180233465   -1.13857387138718   11.89925038855003
C         2.09301676586157   -1.79497918631283   13.42822143722576
H         2.69769966694131   -2.69632899125015   13.56172264752851
H         2.41939492790623   -1.06816214789288   14.17638250895526
C         0.63214596837960   -2.16339428202382   13.68742114989346
H         0.56896823069665   -2.55092004981770   14.70766610451477
H         0.34419054970935   -2.97438330586013   13.01866410875209
C        -0.35715131927922   -1.00097417174652   13.52473093823822
H        -1.02990974954176   -0.98751173824563   14.38623035008793
H         0.17994908205168   -0.05121392497317   13.52425604555803
C        -1.22647055135009   -1.08537595087157   12.26883062007267
H        -2.03447846629118   -0.35529810878190   12.36909532395862
H        -1.68613346651825   -2.07578976526638   12.21478286949601
C        -0.48775827084098   -0.78742781886019   10.95657218501182
H        -1.24078552673307   -0.62382793089474   10.18020330217887
H         0.06279235390730    0.14425481125247   11.07228288321291
C         2.27956269753218   -2.06532143011196    6.04760981072893
H         3.15470318055139   -1.97020686848544    5.38375054310119
H         1.38502760782526   -2.05868065991813    5.40104207547984
C         2.40121286372516   -3.39311404971989    6.78844067007149
H         2.28986794973642   -4.23794468583621    6.09284180698672
H         3.40522905645514   -3.43356777662495    7.21232863533430
C         2.37798115265723    0.26858425701623    6.58773242647381
C         2.41926378511393    1.30409954503121    7.55717893765144
C         2.54493103208181    2.63355338453467    7.20100349274518
H         2.56378784690073    3.39512516197319    7.96942388489558
C         2.62456371852056    2.99285993454315    5.86678717880081
H         2.71042040733329    4.03070508908035    5.58229149957551
C         2.59234416822174    1.99698728141222    4.89960698238587
H         2.65653130139377    2.26907807398782    3.85432390765956
C         2.47306445764555    0.66713734355779    5.23720551115893
H         2.44316613461734   -0.07080318067221    4.44891060028231
C         0.04877802484082   -3.41367688202218    7.43306366660008
H        -0.12488703633081   -2.39982684176327    7.06847112813223
H        -0.59554094158563   -3.56286094834824    8.30236884935737
C        -0.38084784645144   -4.40149617749595    6.34475861480875
H         0.15643032992270   -4.23681668051153    5.41423820265649
H        -1.44012347545324   -4.25328467672178    6.14806000441696
H        -0.24119952938701   -5.43523060277185    6.65200746798614
C         1.66462733561147   -4.75001834529677    8.62954382390169
H         1.45092082821628   -5.61180897475107    7.98144337114186
H         0.95464475409874   -4.77196337887460    9.46052680920213
C         3.07973254415491   -4.90502829924462    9.18113436279037
H         3.77111114080981   -5.25825702107457    8.41991268303220
H         3.07425199285042   -5.63257114413661    9.98943777487860
H         3.44035363379660   -3.95665985426374    9.57158890709592
C         4.14069543935860    0.92736842103565    9.70463290095283
C         4.96580246529027   -0.19145312419077    9.71674326074723
H         4.51418213270705   -1.16053414334654    9.54287534332631
C         6.32356610775030   -0.06326188947586    9.94256337009033
H         6.95783510140498   -0.93830525518660    9.95359461191189
C         6.87123424401463    1.19130661991021   10.15526604522261
H         7.93128473799582    1.29676049997473   10.33510503744831
C         6.05782306603155    2.31281372687045   10.13074217465135
H         6.48637108658676    3.29252397178165   10.28716999225995
C         4.69996841986491    2.18555620921487    9.90073715830482
H         4.07408734466356    3.06590244438715    9.87501232841415
C         1.52909701370672    1.98842847737529   10.18037667841772
C         1.93105302902830    2.39702688513983   11.44887429339968
H         2.83429101204440    1.99032475821315   11.88248817316478
C         1.18451416964278    3.32759125809465   12.14987551045885
H         1.50599892660674    3.64382879487448   13.13204529949176
C         0.02715941159290    3.85192367808005   11.59838312094249
H        -0.55295043222857    4.57819465813405   12.14861448599319
C        -0.38666815416105    3.43993327481219   10.34110394450889
H        -1.29108750544982    3.84514020065201    9.91085133761538
C         0.35517542963113    2.50845774480347    9.64046074056198
H         0.03800045883702    2.17297235133975    8.66275727215066

