47
CSD_code = IBEDOI | q = 0 | S = 0 | Stoichiometry = C18H23CrNO4 | MND = 9
Cr       -1.10279156242872   -0.08037150388351   -1.07952011534425
O        -3.33547012847145    1.34871799577531   -5.03090684918931
O        -2.45188006824150   -2.41805349920748    0.17152539782023
O         0.29971799576476   -0.23578303665628    1.54014358730490
O         0.85583563328830   -2.24667897485233   -1.64436056859233
N        -2.62752282223569   -0.52538351964882   -4.08372047778123
C        -2.13455861188251    0.33746235485255   -3.04623644634022
C        -3.01014270079623    0.72259549016978   -2.00789990023948
C        -2.57394512703634    1.65894387344115   -1.05602648488372
C        -1.27365055815076    2.17213954153316   -1.11591210966097
C        -0.41280060233168    1.79518924650099   -2.15195584068254
C        -0.82771446926881    0.86325893548315   -3.11931976949988
C        -4.43070954242077    0.24322267628802   -2.00939297426299
C         0.06817602922243    0.58329249755460   -4.29428336286616
C        -0.02003987562973    1.73339573604410   -5.30273409202093
C        -2.42194556483911   -1.94614488606258   -3.89023492320341
C        -3.23054905937490    0.13435290999664   -5.11058225088139
C        -3.78122131479174   -0.61624115925785   -6.33040370997567
C        -2.80188354951712   -1.64206072100683   -6.91220684436843
C        -4.05315745623284    0.43936783527125   -7.41135361160808
C        -5.11849111293085   -1.26667433151933   -5.95152553887493
C        -1.96450990602803   -1.48993357278230   -0.32140741923961
C        -0.24450663195251   -0.12291081229393    0.52770723413771
C         0.10878924619606   -1.38342168576433   -1.45383462805223
H        -3.26775389024511    2.02210223034683   -0.30758757199831
H        -0.96506029537306    2.93663528935074   -0.41196005284897
H         0.56114990192244    2.25979098338892   -2.24613205717278
H        -4.93175030451453    0.51750916927805   -1.08383645044952
H        -4.96509648271482    0.69991348673500   -2.84410256875697
H        -4.48392765407771   -0.83798840004196   -2.12513487459520
H         0.36634132514962    2.65349217084432   -4.86972609435224
H         0.55989226388293    1.50117057712917   -6.19272225677591
H        -1.05546331904942    1.90296844463761   -5.58992110590696
H         1.09978954111122    0.47453713940133   -3.94967765604473
H        -0.22158249773973   -0.34755424079115   -4.78300703677022
H        -2.29648486844583   -2.13520380982094   -2.82232783545969
H        -3.27566683292420   -2.51815104164650   -4.24371978967491
H        -1.52032209709911   -2.29798555823812   -4.39837803447121
H        -2.80922413958843   -2.58439865361139   -6.37522140836912
H        -3.08211761349021   -1.85262038855450   -7.94256573099203
H        -1.78869067694073   -1.24528320363258   -6.91799386966560
H        -3.12001526843537    0.88502197471899   -7.74801701090125
H        -4.55231095702459   -0.01658135491597   -8.26285262393076
H        -4.68106880494680    1.23402412480043   -7.01830519193208
H        -5.81836148406059   -0.50645105358264   -5.61079882797292
H        -5.54451766776530   -1.75742491634138   -6.82416435750197
H        -5.01368641755659   -2.00910435943637   -5.16450589518292

