75
CSD_code = IBEGIG | q = 0 | S = 0 | Stoichiometry = C36H30F4O2P2Ti | MND = 6
Ti        0.00005065315140    0.00004675266770    6.24418540955374
P        -1.54477232635245    2.33399867003646    7.30087869236589
F         1.59496006623470    0.69625686184285    6.43473840244807
F        -0.52820806504307    1.17538025042425    5.03340161195211
O        -0.55300709501029    1.30594208001244    7.74689409266661
C        -3.05470066490374    1.65785793476714    6.54480527430704
C        -3.89311840979472    0.94341932128988    7.39348781689081
H        -3.61759487237758    0.83342952075099    8.43494958710841
C        -5.04737061632695    0.36560891750703    6.89972961815314
H        -5.69409831717763   -0.19923419808969    7.55529709412917
C        -5.36756591740448    0.50477647920641    5.55826966096957
H        -6.26619757808990    0.04827217320100    5.16926880946589
C        -4.53216198673782    1.21652493279199    4.71363574357838
H        -4.77914975148517    1.31279672702467    3.66654809552749
C        -3.37308458665903    1.79614117767562    5.20230051592500
H        -2.70651641945655    2.33184666566682    4.54268987526803
C        -2.12735598679716    3.21855402148324    8.78425768292028
C        -3.31756071705236    3.93228369388610    8.81155621004900
H        -3.96278189195708    3.93383850145343    7.94465936418429
C        -3.68326850997178    4.62147995571146    9.95411860461828
H        -4.61153881232345    5.17338494627560    9.97690873569859
C        -2.86162884380372    4.60260095992126   11.07005929903251
H        -3.15050282497799    5.14195767963515   11.96014353309024
C        -1.67403550214769    3.88948070849317   11.04645616038721
H        -1.03676496419127    3.87223145389458   11.91841989295376
C        -1.30719333064388    3.20063671005581    9.90390155016279
H        -0.39066340973264    2.62860669906560    9.86109573598102
C        -0.83751592602501    3.65745967748679    6.27645177109860
C         0.53739239686128    3.69846191864379    6.08817412045459
H         1.14945603946717    2.90812219032904    6.49951169909346
C         1.09737182379528    4.72758137006468    5.35094635059633
H         2.16484827962389    4.75466679701759    5.19063246929646
C         0.29049036812529    5.71768802891947    4.81370569337995
H         0.72839427905467    6.51749790666089    4.23443901920668
C        -1.08033943042094    5.68298904988872    5.01428136266667
H        -1.70837472686138    6.45539237359572    4.59453325505615
C        -1.64632133039307    4.65568108860153    5.74768533390711
H        -2.71516081470578    4.62324843715752    5.90359979431182
F        -1.59486831920337   -0.69615151760537    6.43470476107035
F         0.52834470297321   -1.17532511808334    5.03344814005007
O         0.55306697815605   -1.30584745490369    7.74691810055185
P         1.54479370899911   -2.33393701662320    7.30089321710757
C         3.05474011198013   -1.65785152959764    6.54480715556314
C         3.89314385884208   -0.94336730840592    7.39346520872136
H         3.61759146254392   -0.83330307063948    8.43491148371266
C         5.04741876009146   -0.36560784603698    6.89970042123326
H         5.69413434341419    0.19927324075166    7.55524713978028
C         5.36765076749368   -0.50487226155434    5.55825921160601
H         6.26629905806151   -0.04840649268528    5.16925151047927
C         4.53226135465781   -1.21666729374800    4.71365008777792
H         4.77927996143991   -1.31301724827244    3.66657685603379
C         3.37316144916356   -1.79623293393841    5.20232175297534
H         2.70660558630382   -2.33197743882782    4.54273031851858
C         2.12735870547828   -3.21851346963166    8.78426858276566
C         3.31759511187465   -3.93218795490929    8.81160261207370
H         3.96286953024795   -3.93366661021750    7.94474485491371
C         3.68326645622503   -4.62142573655772    9.95415211934921
H         4.61156629504985   -5.17328002265889    9.97697335822785
C         2.86155856109464   -4.60264343360043   11.07004380563153
H         3.15040597995653   -5.14202922591833   11.96011907677862
C         1.67393343544477   -3.88957710114461   11.04640599498142
H         1.03660542016147   -3.87240945673576   11.91832943008488
C         1.30712778643792   -3.20069290879020    9.90386437867959
H         0.39056862632756   -2.62871172661668    9.86103027368141
C         0.83749139739958   -3.65740618208140    6.27650777111056
C        -0.53741506586536   -3.69836403598860    6.08820959664056
H        -1.14945399994973   -2.90797786246537    6.49949307410878
C        -1.09742405221799   -4.72750555688187    5.35103489267536
H        -2.16489909408077   -4.75455767201712    5.19070538885575
C        -0.29057394338965   -5.71767667677444    4.81386606551547
H        -0.72850143516630   -6.51750417354803    4.23464150702471
C         1.08025405808415   -5.68302056919583    5.01446156078175
H         1.70826499455394   -6.45547621495302    4.59477315796616
C         1.64626496871526   -4.65569259591472    5.74781522551133
H         2.71510220128294   -4.62329795812937    5.90375396899713

