85
CSD_code = IBEHED | q = 0 | S = 0 | Stoichiometry = C34H32F6N8NiO4 | MND = 6
Ni        8.77895498202296    4.90070199302059    8.90455502005482
O         7.38399892420765    4.18940187419286    9.84742480311747
C         7.01466958609855    2.98127607406344    9.88019338005046
C         6.24860186782025    2.57982751717486   11.15010783519794
F         5.06953465059124    2.00977439538111   10.91581035488177
F         6.02619532633403    3.63923035476374   11.93545651472669
F         6.97131766259093    1.71592296679946   11.89605956996030
C         7.22392755109772    1.99738729161610    8.93566614701673
C         6.79467743627466    0.67661208483660    9.18124270652339
N         6.50725719232965   -0.39002159423386    9.49103569053483
C         7.89146438273322    2.30554261954350    7.70043817158562
N         7.71320210899840    1.48763723131973    6.62715807927852
O         7.07507947521202    0.41172796371808    6.59284411749103
C         8.24046135851175    2.15008258202153    5.43377892454313
C         7.03687617589132    2.84505142565127    4.78212885760288
H         6.25178470544959    2.10760480886611    4.62498463365358
H         7.30748884212167    3.27205541767142    3.82165224139093
H         6.64894668575613    3.63234709034384    5.42103839514460
C         8.81754789851858    1.12011284180260    4.47396859221540
H         9.55980271909952    0.49005271290736    4.95544209334941
H         9.26460896916819    1.61419034027366    3.61566386218979
H         8.01140905356680    0.47698033135492    4.12842487288310
C         9.23117768986680    3.14684349672476    6.09661909490156
C        10.62488623287919    2.51356448492338    6.25407564444896
H        11.26786760764990    3.18215441259536    6.82012078683007
H        11.07671698609082    2.34746043834751    5.28038909810213
H        10.56242559110732    1.56803597210624    6.78967315260489
C         9.35197379064820    4.45574170406965    5.32152650026618
H         8.50244215653775    5.09773735799775    5.53023277434157
H         9.39709722076082    4.24858559747796    4.25592256528857
H        10.26240522893419    4.97839496672031    5.59988805710161
N         8.68104750461469    3.32794583929385    7.44871988461699
O         7.36587245752086    5.93624970671347    7.41933239988194
C         6.29303471597821    6.38964101118467    7.86314630512856
C         5.06916350066402    6.28388584791640    6.92867005219761
F         4.55085379906402    7.47944588911664    6.61018466497427
F         5.42109841373832    5.71064580788361    5.76461416610631
F         4.08015640237500    5.53608719694206    7.43264959311040
C         6.08324272742923    7.00287223068124    9.10269301796656
C         4.79008228508632    7.46428383128791    9.42403647992276
N         3.70685045584870    7.80019762546383    9.60003886348150
C         7.13670014288276    7.11228708739795   10.05709153596259
N         6.91034074694636    7.77569537345932   11.23452941681894
O         5.90202159181592    8.43208696321565   11.55079539944284
C         8.04624775567200    7.57125859591823   12.13537278872329
C         7.65496564519311    6.38556422360959   13.02716497035531
H         6.71856980312209    6.61648260632188   13.53091878230939
H         8.41677861552058    6.19779377381820   13.77806596174520
H         7.50409036887789    5.49098648374163   12.43024814431817
C         8.27285699175796    8.80865717457587   12.99026956538337
H         7.40669672418190    8.95623863227046   13.63110509063774
H         8.39091558936046    9.70132121929117   12.38321308489664
H         9.15297184446876    8.67799761008805   13.61414144998344
C         9.14196823250641    7.21258533637240   11.09817673670388
C         9.86522031070854    8.46957964392389   10.58291761441102
H        10.51392027492918    8.19638052823428    9.75369928025628
H        10.47242681128052    8.91223152752990   11.36740261481505
H         9.14956226991037    9.20441193249134   10.22183834801075
C        10.17509574687966    6.22764271338908   11.63613234712132
H        11.02825711050680    6.17552775963672   10.96397551895413
H         9.74331856284317    5.23481550143820   11.73297934312260
H        10.53092102167579    6.55886815971003   12.60875388582474
N         8.38121054796002    6.66941862362519    9.96633873529594
N        10.25910612598564    5.66053984789617    8.22557033869223
C        10.23233722849124    6.74879391772550    7.47766688698658
H         9.25469851241246    7.15402008156208    7.25687365073486
C        11.38505680566107    7.34954709917764    6.96778441633075
H        11.29515215016253    8.24061421213360    6.36770802845142
C        12.61167639935391    6.78769067131119    7.22803036697456
H        13.52215243652748    7.21602087547109    6.83720152173357
C        12.67079452882728    5.62772294131051    8.01753014237671
C        13.89633525927311    4.96419198248476    8.31752797145628
H        14.80702733687396    5.38339565789347    7.91727183421368
C        13.92244769059569    3.83750528873033    9.06887687101425
H        14.85333967918245    3.33244442844194    9.27803371659672
C        12.72344906619733    3.29277773439172    9.61013138548899
C        12.69115724794871    2.13170493045157   10.40205143426281
H        13.61018951714261    1.60509041605929   10.61354799275438
C        11.48707561353100    1.69142979367924   10.89314258962431
H        11.41888244462888    0.80283662872473   11.49952431214674
C        10.32693577722376    2.42278122548655   10.60769545181915
H         9.37627861689133    2.10183720069123   11.01120110117427
N        10.32778172780070    3.50535127882926    9.86549219478861
C        11.49436298891446    3.93720144819949    9.35277592466506
C        11.45670381630171    5.10389912870829    8.51732328795694

