97
CSD_code = IBEHUT | q = 0 | S = 0 | Stoichiometry = C42H42N8NiO4 | MND = 6
Ni        0.77465878855061    3.88779038000048    3.24101911742313
O         0.03932513331466    5.32207496068393    4.07364248509509
C        -1.06119335802805    5.45519045761342    4.68667696296092
C        -1.09079104171427    6.53529750518168    5.71346300366526
C        -1.56443532979482    6.29594283412808    6.99870679224248
H        -1.95221073637702    5.32320067356883    7.25787575621580
C        -1.53344312411029    7.30271095462672    7.94613470694617
H        -1.90687408823016    7.11059332108586    8.94085647659873
C        -1.03180629691184    8.55234931179363    7.62288793424548
H        -1.01648751710622    9.33779813154856    8.36387537985716
C        -0.54852238352951    8.79176982503351    6.34759148810834
H        -0.15479606139105    9.76415314088135    6.09052457237335
C        -0.56865385007625    7.78576885191175    5.39981706119138
H        -0.19386885683014    7.96740543411193    4.40359879365096
C        -2.22351970050782    4.71558536568614    4.44375859677155
C        -3.40635804714214    5.04350500246198    5.12932244996099
N        -4.32331265161080    5.34427626565234    5.75441467181642
C        -2.24129508448884    3.65828523010907    3.48045741615476
N        -3.42718125810500    3.12787146050568    3.05449338811580
O        -4.58395206171849    3.50826440539263    3.35941920913917
C        -3.16976298466064    1.90878817369917    2.28253925960027
C        -4.14361821079845    1.81121437548924    1.11565033114949
H        -5.15642408802520    1.75368217962830    1.50867027888223
H        -3.93986856131245    0.91825065696424    0.53106116361759
H        -4.08811488376298    2.68193624748644    0.46957202621576
C        -3.42889022483741    0.74193844425730    3.24666625512139
H        -4.44952309177900    0.82225036909847    3.61738083784620
H        -2.75418722062274    0.77982973667646    4.09899392616162
H        -3.31326306236778   -0.21187772213375    2.74077788245935
C        -1.66671024789607    2.10965206078274    1.93549752390914
C        -1.46924208814692    2.76850478876101    0.56233495050677
H        -0.42394554099241    3.06206913186117    0.48311140502286
H        -2.08564427200292    3.66031654247755    0.47183714127051
H        -1.70804542270161    2.07787929776721   -0.24183516750442
C        -0.85279792726211    0.81898941538146    1.97055241902622
H         0.14967483219224    1.02959108642003    1.61399141409413
H        -1.30589813860343    0.07355693765001    1.32118022288590
H        -0.77485010546417    0.42251750897897    2.97810864743789
N        -1.19966565978420    3.05908497498207    2.94615678350253
C         2.65436051357113    2.35561807198025    1.83995955336764
C         3.02381034841032   -0.07551053195831    2.27668925945581
H         1.95263476518960   -0.19796654696051    2.32145019151440
C         3.85835638863099   -1.16222992780248    2.46146784728114
H         3.43500710723167   -2.13879048331317    2.64537638545292
C         5.23233792675479   -0.99919936654391    2.41144361496376
H         5.88400261833515   -1.84878460359886    2.55217429561660
C         5.76928109520279    0.25761887793283    2.18795442221144
H         6.84025567803220    0.39177662602088    2.16151853197291
C         4.93903408133169    1.34601119332425    1.99400865390059
H         5.36429924530415    2.32464348457650    1.83106853822886
C         3.55767115534451    1.18186181279962    2.01734360675744
C         2.90233349359787    3.21892894984732    0.75852082612444
C         3.84223216082722    2.83174111484758   -0.21359432715792
N         4.59531241488001    2.42373460861813   -0.98072752848260
C         2.17798408036652    4.43812862604468    0.59754876776314
N         2.43190019945848    5.27431079213626   -0.45810976170226
O         1.72588460855777    2.46880925096538    2.68791543386272
C         1.41160622878272    6.32672024599536   -0.49746082425102
C         0.37529372237013    5.86373894102983   -1.53183179077275
H         0.88124944325696    5.71316799762434   -2.48416583815112
H        -0.40014678592807    6.61286401854223   -1.66161152240479
H        -0.07903091568301    4.92129758072319   -1.23456178398044
C         2.02510252504314    7.64014819044714   -0.96225633281719
H         2.41412484339046    7.50880129981509   -1.96971343625661
H         2.84853296780392    7.95032734056248   -0.32616653129688
H         1.26942374758456    8.42078363893404   -0.97418875040417
C         0.89543978308592    6.26393127229694    0.96836041930530
C        -0.60086369259814    6.52962927340891    1.10577769095585
H        -0.87515388639462    6.48310306911754    2.15461848627425
H        -1.18773029433256    5.79061737866684    0.57192581125117
H        -0.84104693425474    7.51949003189458    0.72471919832482
C         1.65217352087255    7.23495990612831    1.88985521719259
H         1.42617734221668    6.96614490694387    2.91925348701298
H         1.34542845788162    8.26158425854273    1.70842000692705
H         2.72753943083507    7.15190336991825    1.74817316631798
N         1.24049712104066    4.90761887883214    1.39263423906927
N         0.78954212508222    3.02451190368703    5.40235584653386
C        -0.29434206694361    2.47186040705916    5.92227428501115
H        -0.87141972048006    1.84952434768194    5.25282863597365
C        -0.68498121680936    2.65561362034326    7.23980278548314
H        -1.57986138621255    2.18557874353184    7.61607359905156
C         0.09174853592338    3.47035217825283    8.04862991232173
H        -0.19303993770880    3.66701196148799    9.07143782584575
C         1.24526092066133    4.02495689326096    7.52265399334282
H         1.86681641629970    4.67091257606750    8.12246970637276
C         1.57141609849653    3.76414444010131    6.19333711202941
C         2.80848745853490    4.27168881455258    5.57417257108370
C         3.98153372580522    4.42253438980565    6.31228305306253
H         3.99960250157187    4.17789845712448    7.36259185996468
C         5.12692874819501    4.85766500139914    5.67031399656275
H         6.04980332398816    4.97922507651206    6.21776937111570
C         5.06696213306313    5.12454196956406    4.31230234491547
H         5.93490320069350    5.46443401388273    3.77011737627104
C         3.85872962903064    4.94105049716096    3.65730242534988
H         3.77756270553699    5.13379468511070    2.59723962370764
N         2.75986052615600    4.52936943761802    4.26667117752397
O         3.29926619775110    5.12988931925544   -1.35250028868625

