58
CSD_code = IBEJAD | q = 0 | S = 0 | Stoichiometry = C22H26AgN3O4S2 | MND = 3
N         0.10647675018970   12.23187309062246   12.99540041088818
S        -0.92474804907832   11.03234397018099   12.84780837397913
S         1.29025945752089   11.89249786589347   11.99122443958341
O        -2.21089192518890   11.39504850418355   13.37769728580238
O        -0.41076687213462    9.76668469122261   13.32522801028953
O         2.03154460430957   13.06557785016708   11.62415254470463
O         2.10650026918895   10.77665686441439   12.42932836117979
C        -0.91315684299077   10.86817631428570   11.06015277144058
C         0.31716796640351   11.29121256895446   10.60261917106136
C         0.64707506073894   11.20694672016730    9.26553835896635
H         1.61410921834478   11.54314975460153    8.92488993903610
C        -0.29874398524887   10.69343388342614    8.38599870495897
H        -0.06850808836714   10.62691733263517    7.33299605145287
C        -1.53544527399959   10.26581299451358    8.84737120767330
H        -2.25883304834545    9.86997921734702    8.15002088122344
C        -1.85250448733254   10.34005687584115   10.19853399492833
H        -2.80729065285357   10.00776809230603   10.57568092103558
Ag        1.18453852064973   11.08380979468438   14.65765262625743
N         2.75926125536455   12.78325320513457   14.90557142269563
C         3.92340790891019   12.47582270474997   14.32861029129320
C         4.61656893081432   13.38246741379907   13.54243668929958
H         5.54744078766865   13.08902401538268   13.08104124920779
C         4.09066186042703   14.64662400018513   13.31934388951927
C         2.89804241660841   14.96239099448175   13.95645771150927
H         2.45373775461840   15.93722631652763   13.82487045904693
C         2.25687409696279   14.01056236540896   14.73048564997139
C         4.44817127389761   11.09531311337139   14.56262027983624
H         3.94623399566705   10.66326749166938   15.43228353668709
H         5.52566496977291   11.10324349576781   14.71122274589360
H         4.21899561135804   10.48690251377475   13.68777231324569
C         4.76011851214674   15.61946423382325   12.40560933569117
H         5.82786414904125   15.42541837923150   12.33702335874056
H         4.59889300896312   16.64330309351760   12.73548242510687
H         4.32650933055208   15.50981874154555   11.41180003753478
C         0.95778109115023   14.29921364997477   15.41117884513687
H         0.15085704609772   13.89680583358743   14.79474754360333
H         0.80513668868575   15.36837095905421   15.53298752173212
H         0.93832534099346   13.80751019811482   16.38493860729551
N         0.28423389655569    9.50061392131780   16.08504694286215
C        -0.95920175557911    9.74877467458885   16.49788143074561
C        -1.86896278627362    8.72754696370205   16.73935373063168
H        -2.86806970780077    8.96869476214280   17.06889405085678
C        -1.49835918442230    7.40765659166907   16.53080628913120
C        -0.20522743939374    7.17191492271028   16.07614922393512
H         0.12503066009253    6.16215387913360   15.88434829203535
C         0.65051162211083    8.23637582391838   15.84910815313768
C        -1.34752239967673   11.18104627871609   16.65579935443095
H        -0.44417348023740   11.78995586327100   16.76287941503610
H        -2.00727506561586   11.32594472451034   17.50808502355464
H        -1.87395392109787   11.49227284452414   15.75071263165156
C        -2.46070222297463    6.28443664260168   16.74863385509110
H        -3.00199096967053    6.08625805094898   15.82351739387823
H        -3.18764863511188    6.53836396485091   17.51612400022474
H        -1.93865581225212    5.37465523051314   17.03522016092577
C         2.03769996556584    8.04379619617144   15.32550621501515
H         2.17967691492704    8.72441367749275   14.47444009855907
H         2.19828944757901    7.01892988996009   15.00413042715805
H         2.76317222187785    8.29604599268844   16.09938534374314

