96
CSD_code = IBEJEE | q = 0 | S = 0 | Stoichiometry = C34H53N4O2Si2Ta | MND = 6
Ta       10.96109268386060   14.18942331073017   18.51348475182104
Si       14.91270313786610   14.79777187496034   20.52732598227646
Si        9.26743161540362   13.75028658970670   14.27954391086671
O        12.99499651027046   13.86913176046462   18.45128624278580
O        11.03730210619636   14.46451651456714   16.54804170248460
N         8.93564958511200   14.27599303081859   18.57110558740798
N        10.95724111401763   13.23035092505781   20.27721614350724
N        11.08398450845313   16.16672322722997   18.90775032623537
N        11.02751081517393   11.56844315608582   17.35461699310119
C        13.84440997182800   14.72059775094816   17.89918990168784
C        14.76385149123317   15.40821334391317   18.74625172764409
C        15.56537316973843   16.38447661003382   18.22060639030931
C        15.51352317699013   16.74005695763623   16.85865212204433
C        16.28384143977777   17.79702425041809   16.33563021096138
C        16.23359189587120   18.11203170337121   15.00667485622283
C        15.39833504962637   17.38063594309571   14.14995363348296
C        14.64637988944448   16.34306640529971   14.62636859457828
C        14.68623433738880   15.98046243750575   15.99096024005227
C        13.89891371264668   14.92435490823406   16.52339341569174
C        11.77962338204711   13.97690375169212   15.56384257535473
C        11.11565784061127   13.38653096774973   14.44691340623465
C        11.84774313557362   12.73062483997812   13.49351762947976
C        13.24759648449865   12.61183597457499   13.58650929075728
C        13.99571445391759   11.86353344547053   12.65575040484908
C        15.35680714742776   11.78795373914572   12.74922118435657
C        16.02296978897148   12.45666499074873   13.78707867628737
C        15.32582956352747   13.19953882993938   14.69835133758860
C        13.91960695952823   13.30930274372924   14.62452171751077
C        13.16994369671793   14.05189166769539   15.57721773207134
C         8.00330785271870   13.29493557604243   19.09049741716232
C         8.17346537759730   15.40284795205260   18.07055844952639
C        11.84450341546287   12.13064664944117   20.59542493487951
C        10.09987600513979   13.45170877665837   21.42686917568856
C        11.70912255369807   17.10457911443411   18.00300022474201
C        10.62922722519921   16.86028137628432   20.08993794392954
C        12.37492812809860   11.03161755124375   17.17230647933148
C        10.09758771894209   10.49515182445296   17.69011254990797
C        15.36260948359194   12.93678762420177   20.51309212936869
C        16.38884368218983   15.69644743250911   21.35035440382689
C        13.39358363906464   15.19487867522179   21.60879193058428
C         8.96178871428834   15.62610801617054   14.44408979106325
C         8.69633830214200   13.21172710233329   12.53838871823460
C         8.24601766009256   12.74157026316869   15.53602429531064
H        10.73873989348406   11.96061678974261   16.45714509889766
H        16.26366093348283   16.90576565493844   18.85957102386906
H        16.91425287447986   18.35810817921969   17.01192263203198
H        16.82634440696616   18.92403345575877   14.61073817994983
H        15.34939844508657   17.64622226327677   13.10344101780325
H        13.99736498557601   15.79885955340637   13.95625889778811
H        11.34807149590073   12.29176891950262   12.64190634708511
H        13.46685606713920   11.34656329996934   11.86669797261069
H        15.92529467575767   11.21232718197317   12.03311514330761
H        17.09785626212799   12.37820205456893   13.86365990863486
H        15.84717365121948   13.70026575944739   15.50026338456390
H        16.42545553783716   12.79732035929949   20.33498494330632
H        14.82694077513787   12.41732368117787   19.72668918191648
H        15.12198205748548   12.45443806472956   21.45578903970927
H        16.22390889604723   16.76597903465125   21.42855173964339
H        17.31176426668180   15.54291328161237   20.80139448020068
H        16.54333001211591   15.31962087272004   22.35582784227970
H        13.44122459990720   14.66861841034204   22.55831983040111
H        12.48089104728283   14.90869974036428   21.09867535397221
H        13.34106042229152   16.25701137002796   21.83143656709347
H         7.90236829351971   15.85794894568258   14.50569542907682
H         9.36836831186914   16.16479670941322   13.59235501475017
H         9.44138715521224   16.00832298819022   15.33856282921577
H         8.78713731730747   12.14034122592061   12.39350347451212
H         9.26892693157993   13.70134834409401   11.75811445157715
H         7.65371793902742   13.47030912492535   12.38822703709709
H         8.59262764104222   12.95648635744373   16.54041205537309
H         8.32978164481847   11.67228012382050   15.35901777167735
H         7.19134396997683   12.99550179089671   15.47601996776377
H         7.41363067236185   13.71012429624733   19.92141426723859
H         8.54878025082028   12.42591843374705   19.44945232506273
H         7.28183647401739   12.97295586387918   18.32617622520247
H         7.48687316268882   15.09768480643372   17.27008963960528
H         8.84995013391949   16.15587886005958   17.67687697849277
H         7.56916683267632   15.85114198526711   18.87267799511095
H        12.36513455464133   12.30536421133695   21.54494578569554
H        12.58586994908848   12.03357300830529   19.81062016682866
H        11.28643315849404   11.18726253060624   20.69380430781908
H         9.57458069871449   12.53008785013020   21.71573254181076
H         9.36117116082498   14.21625070051778   21.20223685480456
H        10.68703166690390   13.77548862487397   22.29741069007492
H        11.05708623733151   17.97280406681795   17.83261121335807
H        11.90587631860472   16.62798518604585   17.04494786755727
H        12.66252130498755   17.47554697694983   18.40428474112221
H        11.46308498918781   17.35790022518134   20.60173601087047
H        10.16712355585723   16.15591910558318   20.77679131962703
H         9.89124496042455   17.63267611401581   19.83061775119386
H        12.68132987260765   10.51393091725669   18.08105291785172
H        13.06834937620755   11.84814056659933   16.98358451903250
H        12.42603443134377   10.32262943109384   16.33555610030331
H        10.13344664303878    9.67674154188000   16.95824588804323
H         9.08399301128564   10.88498305351859   17.73087356436270
H        10.35786165164666   10.08938852152159   18.66773858162949

