56
CSD_code = IBELAC | q = 0 | S = 0 | Stoichiometry = C24H28ClNORu | MND = 9
Ru       -3.34147678084782  -12.98781701665745   -0.55372748702536
Cl       -5.12097389014981  -11.96184254135405   -1.71807912790030
O        -4.06706969657870  -12.23973879150245    1.20715829832725
N        -2.63356300079060  -10.89023584281913   -0.56778658099641
C        -3.05582214793141  -10.13549097256864    0.63193894065956
C        -1.98276361003273  -10.09320277621382    1.67592854649593
C        -1.28015130028984  -11.24707325835489    2.00123985019773
C        -0.33937988314278  -11.23362452021724    3.01423444502075
C        -0.08986986965318  -10.06581854408319    3.71464569856050
C        -0.79064225967544   -8.91368098010958    3.40022193294183
C        -1.73227586537095   -8.92622373293407    2.38762889026043
C        -4.32018767463856  -10.90385901196843    1.20337738151359
C        -4.61721943146664  -10.37017705660383    2.59080800517532
C        -4.17919383370344  -11.04850321464940    3.71794860090138
C        -4.40378655846520  -10.52759127218679    4.97911306682562
C        -5.06513509493390   -9.32055121264497    5.12414369504664
C        -5.51041078651640   -8.64178406183924    4.00213071519360
C        -5.28969601692431   -9.16488752936861    2.74104720323405
C        -2.65774285138759  -14.35958981058336   -2.27821237702793
C        -2.64540969179846  -14.18551959045458   -3.77884471880980
C        -2.48351379303600  -12.71132360579403   -4.15745163358727
C        -1.54569459630088  -15.04564255599940   -4.40816935407605
C        -3.78096109912131  -14.90981464350455   -1.61845981664892
C        -3.78588733077217  -15.13609699343034   -0.22711479081094
C        -2.62473544781547  -14.85910515156062    0.55295738397497
C        -2.63321741540447  -15.12695428585023    2.02457625465137
C        -1.51618430151683  -14.29206408821751   -0.08738459393577
C        -1.55476597271083  -13.99005729230444   -1.47867512783460
H        -1.63728443349499  -10.74373434791231   -0.73659329859920
H        -3.16668996571821  -10.53912962031224   -1.37279573747510
H        -3.35151705166181   -9.11501956629626    0.35820080220942
H        -1.51037807851342  -12.16065285522676    1.47230777543400
H         0.19720881290334  -12.13776517353604    3.26490692784706
H         0.64320394706913  -10.05467116236642    4.50778461035377
H        -0.60533487844114   -8.00217050504254    3.94894162009395
H        -2.28581112185272   -8.02819526048104    2.15384613930686
H        -5.17062962880129  -10.65051984722455    0.53802896104123
H        -3.66506915195363  -11.98793693649912    3.58892087388896
H        -4.05918414107020  -11.06366004323564    5.85171199038056
H        -5.23872733006602   -8.91084625620689    6.10867996956014
H        -6.03396187048623   -7.70273945450247    4.11089895736149
H        -5.64483728064307   -8.63847692391399    1.86617310925973
H        -3.61258550226735  -14.52494973468891   -4.16502223497978
H        -2.55218675562129  -12.59343357417062   -5.23616863544597
H        -1.51849120174237  -12.32729515105417   -3.83153942877157
H        -3.27771771262517  -12.12768302717465   -3.69298022443045
H        -1.66542650687836  -16.08956753949783   -4.12460441231257
H        -0.55997525025017  -14.71327025997936   -4.08935361298223
H        -1.59480222455643  -14.97546106952124   -5.49205739142450
H        -4.64641928855996  -15.20123322278981   -2.20602690514429
H        -4.63968711300331  -15.61506566993151    0.24069957266357
H        -3.03813618857878  -16.11486783481450    2.23808352749948
H        -3.27599894911620  -14.38489648297053    2.50268694078438
H        -1.63420379742827  -15.04793964196429    2.44818595002962
H        -0.59767562701077  -14.12523197151653    0.46499185720703
H        -0.65635150869504  -13.60181651340080   -1.94910100366350

