76
CSD_code = IBEPEM | q = 1 | S = 0 | Stoichiometry = C35H37IrN2P(1+) | MND = 6
Ir        2.86133946794579    1.11241779893812   11.44815623702039
P         2.64020870618944    2.68942487759947    9.70541601267097
N         1.49540113710276    3.18594013263880   13.14888324463881
N         0.01683139991539    1.82548864537822   12.32164360698341
C         1.34373339580636    2.08141070585742   12.38119580315988
C         2.74733092943366    3.80894132626518   13.47984623506554
C        -0.60223777920472    0.74539551444725   11.60322648215401
C        -0.68625777659637    2.77588174172382   13.03038447430927
C        -2.04216117505306    2.96539762025501   13.24758030609042
C        -2.40733542339139    4.05942585810805   14.00929050825055
C        -1.45817132245709    4.93350979757436   14.53762709439431
C        -0.10470259799446    4.74888330941242   14.32770873633028
C         0.26890432666497    3.65467053490743   13.56336655545417
C         3.44809736276328    0.19247396959026   13.32664866556841
C         4.95093940356719    0.14141986595041   13.42609720275547
C         5.65091634548009   -0.12177699355110   12.08084760151009
C         4.89487705598521    0.45686972427253   10.90876041264676
C         3.97682477120593   -0.24649692821402   10.15758769471275
C         3.53987223797062   -1.66329604235901   10.43294328529930
C         3.20346072087434   -1.93216296469558   11.91313720337654
C         2.66002233248988   -0.71542266501793   12.62744985664644
C         1.84390671618649    4.28517076027383   10.13189683586973
C         0.45919480508831    4.27427997395870   10.29571228500602
C        -0.20958995423446    5.40660210908042   10.71630890479502
C         0.49677592188040    6.57109337056524   10.97452701649737
C         1.86843319017870    6.59764616219389   10.79155576041081
C         2.54280232570606    5.46038024706354   10.37732669065841
C         4.19222245277235    3.20075863824623    8.89585079983148
C         5.20583580081123    3.69537083675177    9.71801151312483
C         6.42039175881371    4.07726053616080    9.18086828003861
C         6.64412072809205    3.94787672603482    7.81887574535172
C         5.65416858992078    3.42772656406595    7.00276711322702
C         4.43301140856810    3.05026420772329    7.53564091416381
C         1.56530743471284    2.19343048700373    8.32066377925846
C         1.19921330259085    3.12029777857233    7.34621252788572
C         0.37524001528364    2.73794448817749    6.30469385815590
C        -0.09477931641501    1.43517470459756    6.22932462371601
C         0.25858328943663    0.51314231551358    7.20012019699690
C         1.08617768856022    0.89168420368075    8.24296921213701
H         2.91260666449292    3.77923580335626   14.55840108791371
H         2.74614592920432    4.84882359827005   13.14971517977174
H         3.54890928414472    3.26808623646728   12.97623796632510
H         0.17319918393630    0.15348457801922   11.12113743272312
H        -1.28122995533580    1.13455269484791   10.84209745791510
H        -1.17086079234479    0.11338907900035   12.28748299086302
H        -2.78047019706145    2.29325598992858   12.84127361339320
H        -3.45265354906088    4.24329865801058   14.20063902312514
H        -1.79102182263980    5.77403930494501   15.12557439719684
H         0.62511198352519    5.42735702212120   14.73815312745086
H         2.98418227993963    0.71212271976152   14.16345540366155
H         5.23323654866480   -0.62981541539147   14.14921580032646
H         5.29741855501012    1.09525598674267   13.82963599403532
H         6.64497725439843    0.32635615252920   12.11312142721202
H         5.78772507127137   -1.19159164135137   11.92510589759684
H         5.38686416039375    1.30013853174984   10.43167007907870
H         3.83763994350629    0.06046524376366    9.12072699994858
H         4.32593073405880   -2.34895329553158   10.10252848334537
H         2.66000474299869   -1.87699375322579    9.82198402399488
H         2.45957752964811   -2.72868243382854   11.95816633417653
H         4.08576833258538   -2.28945330335679   12.44365586456559
H         1.62658600272745   -0.81326599645556   12.95196821199988
H        -0.09294727450858    3.37119321933389   10.07388108607190
H        -1.28127843533624    5.38325772036761   10.84391520551131
H        -0.02325770775255    7.45608574581937   11.30638636871768
H         2.42040529225442    7.50793795252783   10.97172960619905
H         3.61177183303455    5.50012008405508   10.23088538195837
H         5.03695791471845    3.76958141038407   10.78539289926333
H         7.19561194539078    4.46793928797954    9.82283720603073
H         7.59257859124045    4.24279044164506    7.39771031944900
H         5.83198088528921    3.31155572840704    5.94457768232341
H         3.67173537878670    2.63801916362163    6.88972976056263
H         1.56017106977784    4.13775644752315    7.41064800186401
H         0.09725601665426    3.45713305444167    5.54938752320590
H        -0.73842919468076    1.14147823989834    5.41465406826759
H        -0.11065635872048   -0.49980357324813    7.14447249231787
H         1.36544248318921    0.17834937822615    9.00602232548922

