79
CSD_code = IBEQUB | q = 0 | S = 0 | Stoichiometry = C29H43BN2S3Zn | MND = 4
Zn       10.41453345730970    0.98323484528415    8.00861799615029
S        12.63543635714482    2.03899837473125    7.50904494692728
S        10.64309002106644    0.05126763203580    5.62348948556233
S        10.31693078140186   -0.54139054443616    9.76444073959678
N         9.10547553616208    2.50503546856526    7.54072902156035
N         9.28409356007371    3.02074463936973    6.31123793667291
C        11.87212334134668    3.39109027251839    6.54622070645645
C        10.79113702455347    1.62464261113917    4.69872021094253
C         7.84614902648441    2.76909280649689    7.92549460250767
C         7.20342144826194    3.45855011546015    6.89930406738834
C         8.15064730399795    3.58974283573730    5.90360763178476
C        13.33132352169357    2.86426820360268    9.03587636207288
C        14.17588804313243    1.78958483950660    9.70950062291730
C        14.20184900357829    4.03610286894558    8.60251892415153
C        12.20035272538158    3.31068678741897    9.94756204985663
C         9.04719292584546   -0.75964617513036    5.08806169659018
C         8.91684958064120   -1.97412561898796    5.99999542180593
C         7.86466766016488    0.17663870295920    5.26281461060586
C         9.20593077508555   -1.19206785983137    3.63592134036274
C         7.27324287185397    2.37186002107086    9.25940753876854
C         8.29034696251612    2.63375061785065   10.37335779465777
C         6.00909792197252    3.19192442226845    9.54239015222866
C         6.90105190654527    0.88396794587298    9.23318422610641
C        10.29193271224750    5.56928218166943    5.00109708072022
C        10.29196640828967    6.69104373405034    4.19343864933035
C        10.60185574606357    6.57656798733280    2.84909318209339
C        10.91293850475050    5.33152369005573    2.33444016388787
C        10.90885448605979    4.21595043216990    3.15543512624246
C        10.59089508718298    4.29724743475550    4.50843928210815
C        12.65969008437435   -1.41331338946285    8.58222962307573
C        13.93155211359805   -1.95225899659658    8.63534686236864
C        14.49177409634928   -2.31393582076867    9.84900975663872
C        13.76730705702836   -2.13836034555380   11.01704579222863
C        12.49871987400378   -1.59336622518921   10.97510651688799
C        11.94169595956587   -1.21930592433707    9.75564719006020
B        10.62753916469691    3.03170391596762    5.52659085697220
H        11.52960706912500    4.12813885624968    7.27065897410683
H        12.69447844241986    3.83143881245426    5.98184673171142
H        11.78245450589760    1.55651936341534    4.24935625511064
H        10.06044264341777    1.55203227588822    3.89540842382443
H         6.19704485157698    3.81912344971163    6.87476051009331
H         8.07396211185531    4.05930946880003    4.94400682246423
H        14.64375690246042    2.19308201298521   10.60526011006288
H        14.95458725403024    1.43773239015780    9.03713680309639
H        13.56462235507446    0.93664619300565    9.99541365717266
H        14.70903983249798    4.45345462458211    9.47063785991811
H        13.61041725708809    4.82459759059076    8.14361833044639
H        14.95427532455976    3.70640538263050    7.88963545127356
H        12.60870324985794    3.82114742460009   10.81852968285085
H        11.62842824649765    2.45026906501956   10.29482998823041
H        11.52527543675908    3.99855159272806    9.44131102948763
H         8.02106414677751   -2.53637815736915    5.74457480629819
H         8.84637163966975   -1.66891695467356    7.04376315543981
H         9.77997824503496   -2.62708024017751    5.89225640631668
H         6.95469147564253   -0.32498999120267    4.93644599277336
H         7.98005832617297    1.08364327122156    4.67335579481323
H         7.74425991485051    0.45245482989255    6.30876388148049
H         8.32351175798242   -1.74370548334954    3.31707691361129
H        10.07646711617379   -1.83411508912018    3.52452430564572
H         9.32406986055622   -0.33342163275408    2.97845337703259
H         8.61470569337870    3.67195892718708   10.35762508796793
H         9.15895420124108    1.98918203885339   10.26051174603075
H         7.84181355972421    2.42453993402456   11.34130308044245
H         6.22289036317172    4.25735558402273    9.49858830382665
H         5.63543408899382    2.95671665756560   10.53617155350810
H         5.22587906974616    2.96204654852362    8.82472582266497
H         7.78604399698668    0.26702254870843    9.08709335677849
H         6.19168801197427    0.68123869292175    8.43286307868159
H         6.44653158321777    0.59887873049114   10.17855909000198
H        10.04167377688693    5.68479867015084    6.04788131882444
H        10.05090275083751    7.65838784375382    4.61261611124940
H        10.60300273332524    7.44909499686526    2.21155333914894
H        11.16147111208386    5.22692103472963    1.28719263562006
H        11.16351349151478    3.25981982027119    2.72185932287660
H        12.22593726390052   -1.14606848324997    7.62807125370292
H        14.48494021740030   -2.09181271154431    7.71827236525659
H        15.48583462148739   -2.73421651238168    9.88461218885166
H        14.19367715139568   -2.42357604155559   11.96782851920125
H        11.92688529633094   -1.44825982116824   11.87922839382245

