65
CSD_code = IBEQEL | q = 0 | S = 0 | Stoichiometry = C21H38BBrS3Zn | MND = 4
Zn        6.16269307057517    3.89920440522486    1.99759723330110
Br        5.64667703611140    4.62341480645360    4.21292835976174
S         8.22258847098673    2.54427366882250    1.53170052639707
S         4.58751365134450    2.45139581043364    0.66129721389838
S         6.58544225343961    5.55840132196518    0.14691051713335
B         6.90216290823231    2.90949903719590   -1.11280450271329
C         8.86268928381854    1.72563995958069    4.01851022932856
C         6.81804500859863    0.65476609085764    3.04307112922533
C         9.09526025032008    0.02277422955327    2.18801397308052
C         8.23155084800780    1.13708971780936    2.76246709925856
C         7.61903554335121    1.85277704840709   -0.04711156704707
C         2.34109356862068    2.70599926803125    2.12792242665053
C         2.05940192959063    2.76800598260514   -0.36661116914124
C         3.00565469507422    4.75392875896390    0.84694523819836
C         2.89879283127473    3.23838805538703    0.81333936163253
C         5.24742077435531    2.94733822769801   -0.96751028577476
C         8.47713122761387    7.47752393107803   -0.38930228327263
C         8.84823262446430    6.11958352125416    1.69336524746167
C         6.98236250409815    7.78979680160123    1.60222354385685
C         7.81963528790897    6.79760555653127    0.80389728988055
C         7.50837579925208    4.44261841969172   -0.97180270355660
C         7.26941624201279    2.27380881192690   -2.56246312518063
C         8.19373456783933    2.82547361054791   -3.44618348117827
C         8.51709262558622    2.21910099114380   -4.64821286138358
C         7.92736675400440    1.02048615064361   -5.00492385691640
C         7.02323498895596    0.43367603131644   -4.13701933748426
C         6.70994572580626    1.05226249735817   -2.94098136702703
H         9.86104139920770    2.10097811470806    3.80535923834812
H         8.93512503943495    0.96094800870180    4.78889981609859
H         8.26212768411325    2.54574462248275    4.40841940767821
H         6.31483642587228    0.32743190741496    2.13495405496235
H         6.22144618743974    1.43953277424959    3.50966996143980
H         6.85330179616334   -0.19006859153279    3.72902697621591
H         8.64645369408176   -0.40149722324338    1.29251538558644
H         9.20452514502006   -0.77201433828954    2.92362013783697
H        10.08516658678658    0.39776400350228    1.93624710045518
H         8.50438812587168    1.40475599899170   -0.49973173877440
H         6.92830695368619    1.04997260592175    0.20686051411023
H         2.29770784744152    1.61925564788790    2.11344700152058
H         1.33677907328599    3.09259625969165    2.28716078494882
H         2.96163704454242    3.01508610085373    2.96748274978906
H         2.45067827731170    3.15343347986811   -1.30562144954308
H         1.03659699409996    3.12250818812519   -0.25298973428898
H         2.04371330175543    1.68113740273287   -0.41555492565030
H         3.49308370747107    5.14499044018030   -0.04438216608786
H         3.55991743299160    5.08939908508949    1.72429493644813
H         2.00738383211595    5.18556015171214    0.89837879982980
H         4.76430159841126    2.27587169038308   -1.67585823561500
H         4.87728229144807    3.95404822774651   -1.15945922016132
H         9.08247793077147    6.77568374660750   -0.95859702293480
H         9.12443506394789    8.28063244560136   -0.04190221585408
H         7.72403541587394    7.90300402302856   -1.04943463944395
H         9.38038120560673    5.32968564489407    1.16639734074604
H         8.37796360084624    5.69083300770951    2.57896736579195
H         9.58022117461704    6.85393513206375    2.02557574754077
H         6.22630595851663    8.24924149581019    0.96945217038629
H         7.62153822453434    8.57224381197884    2.00549479477094
H         6.48212962731357    7.29701304301931    2.43423620727135
H         7.47914399210907    4.96571745561527   -1.92723068580840
H         8.53787660272294    4.42500647041025   -0.61715333512017
H         8.68919475917252    3.75316206162294   -3.19676057684505
H         9.23664173548438    2.68442148449379   -5.30857037524922
H         8.17494937739546    0.54474187077133   -5.94334729686502
H         6.56330590075113   -0.51146637388352   -4.39314720701282
H         6.01204852055152    0.56007741098664   -2.27608251491390

