83
CSD_code = IBETUF | q = 0 | S = 0 | Stoichiometry = C38H24B2F2FeN8O6S2 | MND = 6
Fe       -1.16124701639443   -3.84914565853653   -3.76956742689404
S        -3.08688545934333   -7.26783252202852   -1.77243558406158
S        -3.15497044999597   -7.44512599781502   -5.36610264028908
O        -1.93863142653794   -4.78078741696328   -1.18655652217151
O        -1.70568065795734   -5.19009578067891   -6.22797094410464
O        -0.92478292234766   -2.56432221886801   -1.26213909872024
O        -2.66199632863530   -2.96572331345873   -5.99534986156789
O         0.45305179992210   -4.53955563077195   -1.55446679927342
O        -0.28050885999537   -3.21795675118568   -6.38108266464098
N        -2.04699017419285   -4.95245400483020   -2.51964683654952
N        -1.72423279512940   -5.26573841419964   -4.88297517263322
N        -1.36277129876232   -2.44521971908340   -2.53345161563442
N        -2.37114490503777   -2.74527174522900   -4.69668635524882
N         0.43798428702521   -4.28878135997279   -2.87973693454868
N         0.10055070978607   -3.43969312466735   -5.10489827279436
N        -4.21117629573641   -9.70151674386266   -4.80766427853472
B        -0.72408161411855   -3.97257045008912   -0.83744623015427
B        -1.62295695672543   -3.76821562639870   -6.69852584646018
F        -0.51177909907292   -4.02273989786412    0.48909314654501
F        -1.83386318061976   -3.71805095259003   -8.02529958126525
C        -2.50834737056591   -6.10100248708637   -2.93522085941580
C        -2.41874651656080   -6.23223236966030   -4.34667659276394
C        -2.20365395515740   -1.48592942306940   -2.81775412616510
C        -2.69412952126329   -1.59612914590775   -4.16432949764370
C         1.57090638078016   -4.06924869724317   -3.49331988111772
C         1.35955470180311   -3.69667093794569   -4.86516880981413
C        -3.65166505999842   -8.60106389502580   -2.78444788516629
C        -4.57784508033325  -10.69941265151154   -2.66544574924523
C        -5.03140390450205  -11.79149515060936   -1.90531344724641
H        -4.95349314766791  -11.73954397751854   -0.83110271521020
C        -5.55718376544047  -12.88079801230322   -2.54754976017440
H        -5.90969402022007  -13.72533720255121   -1.97479921605304
C        -5.64821888908258  -12.92109497878720   -3.94938690422842
H        -6.06908025824879  -13.79559264474059   -4.42295419193839
C        -5.21093710284922  -11.87366271998131   -4.71529579699985
H        -5.26859578004990  -11.88584648280027   -5.79193115892274
C        -4.66383943478116  -10.74285842322837   -4.08392238973943
C        -3.71020990494129   -8.65703359579419   -4.20749891096763
C        -2.65814637405588   -0.46267643313181   -1.87200786017887
C        -1.77113233718436    0.13080357289757   -0.97589295612248
H        -0.73384997007537   -0.16296420042441   -0.97770100736448
C        -2.21953641339289    1.09492289905367   -0.09205856447349
H        -1.52466935185786    1.55149039755264    0.59650423462174
C        -3.55194565293052    1.47154530822209   -0.08519457572333
H        -3.89896013009480    2.22372943221381    0.60729269427091
C        -4.44175575666290    0.87490494354996   -0.96473197556704
H        -5.48384088009090    1.15745464523122   -0.95500103238369
C        -4.00192042905756   -0.08522886582029   -1.85441658518522
H        -4.69976545757416   -0.55934749765482   -2.52749602631842
C        -3.40956430248140   -0.51927736930805   -4.85441736910753
C        -3.01036136488544    0.80477875285307   -4.66211984707130
H        -2.17292457681362    1.02254079113197   -4.01700071645214
C        -3.67003720909519    1.83035903682588   -5.30990751618201
H        -3.35190003651574    2.85096567270749   -5.15777465087838
C        -4.73361075370049    1.55254098156348   -6.15430144310444
H        -5.24896970573132    2.35726985632665   -6.65693060968047
C        -5.12783963701105    0.24072667418644   -6.35670729484195
H        -5.95067631292706    0.01955941623000   -7.01955243919971
C        -4.47040024452981   -0.79311710635819   -5.71552837001458
H        -4.77765761999768   -1.81365664634603   -5.87682966460890
C         2.89378857281683   -4.13460357838661   -2.86635700452841
C         3.20276500173811   -5.12790563332449   -1.93898495719837
H         2.46084770042467   -5.86534574204359   -1.67884544101437
C         4.45699427903192   -5.16899149326111   -1.35846433983716
H         4.68854125671134   -5.94388508401412   -0.64343475543770
C         5.41122735278354   -4.22130120577368   -1.68786391515852
H         6.38922416080158   -4.25562919079001   -1.23169356299407
C         5.10576542353752   -3.22321299111604   -2.59992522809268
H         5.84353502892265   -2.47615325328105   -2.85190170933335
C         3.85733422554780   -3.17705642815985   -3.18819044230879
H         3.61694502765643   -2.39051940801072   -3.88709548991989
C         2.42052136761664   -3.69056909785897   -5.87624778385624
C         3.38806800869365   -4.69656778244770   -5.86822724254204
H         3.34391034240196   -5.47564506441202   -5.12262331636950
C         4.38472616797642   -4.70875552015809   -6.82399346016847
H         5.12585984639015   -5.49388118023204   -6.81350190798842
C         4.43234177245446   -3.72127497794846   -7.79543388114511
H         5.21363203747103   -3.73341217910359   -8.54053802526662
C         3.47131651966066   -2.72457200058864   -7.81236301675181
H         3.50075534921399   -1.95759576220484   -8.57144987305407
C         2.46678262713819   -2.70720273898608   -6.86250706435053
H         1.71756057966316   -1.93223366807884   -6.87935758183856
N        -4.07098285904514   -9.60556015646126   -2.06539901346549

