63
CSD_code = IBETUG | q = 0 | S = 0 | Stoichiometry = C30H28N2O2Zn | MND = 4
Zn        8.32719530242368    6.91907713441778   13.23046215823440
O         7.11516719225988    6.38219015889258   11.93045645952890
O         7.72335685662772    7.03991758324764   14.96179066150812
N         8.55108640166124    8.74886573569910   12.54458089579350
N         9.72050595636900    5.54629451770950   13.53991123508696
C         6.80648276044195    7.01766184382403   10.85475994189748
C         5.96521752982279    6.37929823249260    9.90531855838276
H         5.60943282222177    5.39077906210556   10.15502317472953
C         5.62089549702506    6.97618724942414    8.72433040786251
H         4.98284814384105    6.45621623188322    8.02404698520083
C         6.08800966446178    8.25767882567455    8.41066773323930
H         5.81209483565786    8.72103058367194    7.47589350901859
C         6.88863610361150    8.91297974583179    9.30549225738904
H         7.24938783053161    9.90784868093188    9.07903175811205
C         7.27067143545713    8.33149419537504   10.53199758880220
C         8.06391919286820    9.11463174526895   11.41089115891435
H         8.24999796157188   10.14379638293102   11.07791514343166
C        10.26366092652745    9.10540153649328   14.20148715310904
C        11.39113407277655    8.62700244627049   13.54038893669554
H        11.46932349700892    8.74599799288570   12.46885611219281
C        12.41444725634480    8.01487003729851   14.23937180711702
H        13.28632364423809    7.66137190708213   13.70976070409916
C        12.32514853761005    7.86668750728166   15.61286145286859
H        13.12234129169412    7.38720122650742   16.16179417688558
C        11.21191146837964    8.34446354366826   16.27950785343290
H        11.13262559768716    8.23375531136970   17.35083085951438
C        10.18911154702041    8.96306136762931   15.58070740912548
H         9.33577131216471    9.32987003607638   16.12637096831553
C         9.18380096395068    9.76323890535919   13.37304049113022
H         9.65822882417174   10.51916555657802   12.72376012419737
C         8.09248873443145   10.44448839683423   14.20056571370355
H         7.39483000243462   10.95118601499749   13.53635874478909
H         8.52771405324929   11.17558535231033   14.87721924014568
H         7.54283655050926    9.69579206707841   14.76589687515214
C         8.30953310768548    6.56020866060737   15.99947673387169
C         7.81173182057613    6.90613642418926   17.28366479208942
H         6.94926662796641    7.55543147124669   17.31523091607103
C         8.39129486608558    6.44821671161399   18.43399037018702
H         7.98811981397985    6.73850762050871   19.39398214204375
C         9.50502960481556    5.60240199044727   18.38122317875273
H         9.95650267561154    5.24372471264694   19.29361933149023
C        10.00541492588017    5.23440151686006   17.16256451348364
H        10.86303137427635    4.57680720186128   17.10939963891095
C         9.44251282680789    5.69178666901203   15.95331186690271
C        10.03012946653068    5.22690401379336   14.74853000133865
H        10.83186718975859    4.49057490601933   14.89033857169436
C        11.00428205049109    5.83413331231598   11.50066791870213
C        10.22751100212094    6.52953936323969   10.58354484848574
H         9.17334004978463    6.32946808711897   10.50409594820162
C        10.80295547310539    7.46228157162952    9.73796497343716
H        10.18088363801811    7.99616288129929    9.03393817536397
C        12.16542888758780    7.70222865891177    9.78730937536238
H        12.61499678064708    8.42985569304202    9.12744761243793
C        12.95209041884172    6.99391761701939   10.67995851113260
H        14.01852148597760    7.16427820732813   10.71380930312250
C        12.37358713976590    6.06875309908331   11.53089536179208
H        12.99401474196274    5.51787005850227   12.22414549702732
C        10.39601970858901    4.84082825707900   12.46228299507291
H        11.21319527713907    4.23380617460293   12.88647899812806
C         9.39645779092431    3.90151761014115   11.78201297980447
H         9.14008390942818    3.08737385752633   12.45646686108053
H         9.83027981478791    3.48950965065858   10.87394001771888
H         8.48371376380180    4.43648688658799   11.53686031668394

