45
CSD_code = IBEWOE | q = 0 | S = 0 | Stoichiometry = C23H17NO2PRh | MND = 4
Rh        6.80932421749746    2.26559503520610    3.32461264023853
C         5.62307653579556    1.20711432155214    4.24578572618031
O         4.85900730691236    0.55410839093680    4.79802620398693
O         8.45405875605574    1.50079963532133    4.22777237608216
C         9.52031809892532    1.96042066727528    3.66368882320103
C        10.82020925687424    1.56271388723461    3.98911563163548
H        10.95823744204749    0.81982849838619    4.75929805327204
C        11.91679612116460    2.10781169173140    3.33004802638876
H        12.90475578955653    1.76907724961829    3.60913603250890
C        11.79142605049421    3.05810241939504    2.33955701056385
H        12.66013554261922    3.46201523564037    1.84284359574110
C        10.51504011868303    3.50750876576426    1.97205781761812
C        10.23980722252186    4.47070973536601    0.97912340898459
H        11.05761361384372    4.91780428327780    0.43243188632100
C         8.94403956351310    4.83499331498892    0.71871649894345
H         8.71752847244404    5.57602337113713   -0.03362500700967
C         7.88762520707872    4.24869707305749    1.43682198008434
N         8.12558061451932    3.32712302218636    2.35835168460950
C         9.39124211807208    2.95334238556139    2.63844475227148
C         6.45880424011461    4.65536099628715    1.22535813762531
H         6.23230983331200    4.82162193877486    0.16802824165056
H         6.26368681717424    5.59004584875377    1.76486057430566
P         5.38308955076404    3.33809712651447    1.99559059489436
C         3.94959283731265    4.31668363100382    2.53824283264309
C         3.70035029076562    4.39118739577447    3.90334479808196
H         4.34746560550743    3.84324997129958    4.58008158998054
C         2.64586911058672    5.15290656518709    4.37519707761286
H         2.44979542353239    5.20795984320842    5.43559029637586
C         1.84163035837320    5.84390139238466    3.48360483069000
H         1.01628148854669    6.43672035572765    3.84915667865804
C         2.09311174762598    5.77859341515413    2.12137228663299
H         1.46542529857843    6.32188460955382    1.43011048820239
C         3.14547865654929    5.01878390118365    1.64564344601041
H         3.34329717378472    4.96035701521844    0.58389096962654
C         4.76310901830245    2.45073469398916    0.53287179824171
C         3.44343244977978    2.01926703530768    0.45246019347480
H         2.74882983700852    2.27429391340672    1.24075062498422
C         3.02467189773553    1.27125960701043   -0.63320960697033
H         1.99681644963770    0.94551911930932   -0.69610979248222
C         3.92057962390382    0.93483822415664   -1.63465333726151
H         3.59077669810965    0.35121476016805   -2.48116425149112
C         5.24425152642771    1.33541566321467   -1.54337534903711
H         5.94755086166065    1.05858550847159   -2.31514415428773
C         5.66707163435667    2.08277254108559   -0.46055477160578
H         6.70519952192940    2.37885594421725   -0.37735133817914

