78
CSD_code = IBICOO | q = 0 | S = 0 | Stoichiometry = C42H31ClCuN2P | MND = 4
C         2.85725740151150    0.95684373122476   13.87496339021103
H         2.80608108573026   -0.02708754616963   13.42872236988546
C         3.22248165263224    1.12085495793322   15.20516982287859
H         3.44912518756122    0.25613047296069   15.80986753159145
C         3.24897785205454    2.38819056893652   15.76829115826444
C         2.96764489313508    3.49090076975105   14.92596060937008
C         3.10678861087634    4.84907364305033   15.32713381363016
H         3.45260183882845    5.05463476391305   16.32913349277855
C         2.87216338148669    5.87140456559161   14.46657604512023
H         3.03230408149110    6.89153483132294   14.78202506602697
C         2.47113529054587    5.63313535552461   13.12268967839234
C         2.25643732332388    6.65660151443699   12.16834442127351
C         2.00977880022753    6.28095811046043   10.85674878825178
H         1.85831689220381    7.03282279064173   10.09751533719890
C         1.90658877460241    4.93376348218384   10.52801709377711
H         1.67872002311026    4.62029762322555    9.51745338327511
C         2.35893148543272    4.29654516514591   12.68256332960127
C         2.61295275059049    3.21867281815163   13.58769513639035
C         3.55268275726018    2.55127850097518   17.19621558510737
C         4.67942647086612    1.94380386878242   17.74476620244829
H         5.34509713442279    1.38500458613720   17.10320989312230
C         4.96030137068711    2.07723268730617   19.09174234316168
H         5.84220299553846    1.61006640817796   19.50456194936051
C         4.11375500777137    2.80611008949445   19.91070242001106
H         4.33246521715820    2.90707983846882   20.96328548968183
C         2.98322355100258    3.40176996027334   19.37627559628401
H         2.31524611737707    3.96318589309245   20.01312093858787
C         2.70387796499811    3.27909600901117   18.02780981584140
H         1.81040644829510    3.72698877722562   17.61633282258869
C         2.27707215327276    8.07995593097551   12.53317016775459
C         1.49105729507074    8.55795670466310   13.57952477002170
H         0.85834208160675    7.87300158003376   14.12606182374278
C         1.49474598908340    9.90330468119854   13.89803449990837
H         0.87709781798332   10.26415853303138   14.70746266586550
C         2.28552395835417   10.78646521333163   13.18171177108983
H         2.29053590754693   11.83610595096443   13.43501777819894
C         3.06633444111333   10.31988873319984   12.13711265098249
H         3.68333228042101   11.00553987515189   11.57535520073543
C         3.05809332253294    8.97691161088667   11.80898204634401
H         3.67526732485437    8.61048295670859   11.00165602956054
C         1.48895367236259    1.31630531568840    7.93747738332872
C         0.44739483048841    1.31674582887692    7.01591467990943
H        -0.54845483260565    1.02459947867946    7.31883166199536
C         0.69177854482305    1.69742168006895    5.70819803885639
H        -0.11634891261628    1.69688236161772    4.99058443397779
C         1.96571527532431    2.07748427442563    5.31699810975052
H         2.14835198076574    2.37122782536577    4.29339907940508
C         3.00170994941567    2.08816793308859    6.23782043779181
H         3.99306762286644    2.39251592239186    5.93657987174430
C         2.76695810152572    1.71551102969518    7.54872892509092
H         3.56351129734209    1.73825133722907    8.28353381172434
C         1.62448977192336   -0.95494189701351    9.65357322733684
C         1.29680468593923   -1.66743293574144   10.80678829133363
H         0.81931669297309   -1.14706499525107   11.62841872677226
C         1.57469059934484   -3.01697101754280   10.89246488983668
H         1.31353860324559   -3.56795070967391   11.78471549104376
C         2.19682525140279   -3.66309727735272    9.83454921369274
H         2.41832332365248   -4.71805646713920    9.90241009690589
C         2.54211065933872   -2.95424471693460    8.69639445687242
H         3.03520487923562   -3.45659231677400    7.87692567785527
C         2.26265770568487   -1.60175677156011    8.60236492626466
H         2.54022350369576   -1.04803904519015    7.71691904030409
C        -0.50050460018917    0.89404430242263    9.94458137836688
C        -0.99980637284379    2.03275171328206   10.56933061851783
H        -0.30324549190870    2.80018994594205   10.88437540175477
C        -2.35807142083506    2.16729890834151   10.79043397918906
H        -2.74325538484021    3.05290049857442   11.27497432421032
C        -3.22419205633843    1.16047650592328   10.39520713013706
H        -4.28544705547074    1.26167065506301   10.56905696337977
C        -2.72997826409512    0.01970030210074    9.78260775763044
H        -3.40715106590185   -0.76577000747300    9.47942091422384
C        -1.37243069939841   -0.11800128531255    9.55605996365065
H        -0.98548613237523   -1.00935701651821    9.08161485442853
Cl        4.71720614880230    2.02572041184889   10.50295413670319
Cu        2.58227306349387    1.99996326504490   11.08563181006022
N         2.05401099486954    3.97092921777210   11.41294972220023
N         2.53928428645565    1.96799993158676   13.09028874846061
P         1.30149591178370    0.83255180712875    9.68113889696894

