33
CSD_code = IBIDEC | q = 1 | S = 0 | Stoichiometry = C9H15ClN7Pd(1+) | MND = 4
Pd        0.49622805664042    2.99664911284435    3.55724175218855
Cl       -1.55965358388225    2.41215378700137    4.17017334007983
N         1.29051265041695    1.53389686062718    4.63659701155419
C         1.01505138646051    1.32240519741421    5.93064983673352
H         0.25609386026993    1.95322670503773    6.38324268596080
N         1.56961965624170    0.43022206337150    6.70722455109380
C         2.51125730817271   -0.40812331540704    6.24349350681918
C         2.88222045408237   -0.27966010810822    4.88503807234051
N         3.77463844789053   -0.93696097000880    4.08575928861864
C         3.66492760167780   -0.38862202027010    2.91986544407697
H         4.22984357876728   -0.68752870673996    2.05962271098261
N         2.73961817507999    0.62687275586725    2.87021418578985
C         2.22544954895252    0.70842187690537    4.13317450529392
N         3.04489142987262   -1.29815472531831    7.06897216585216
H         2.71390509202313   -1.34650844261961    8.01855160713804
H         3.73362405866881   -1.94832291389073    6.72923604853191
C         2.35190919561806    1.40070831982536    1.71758943874566
H         1.24357873350732    1.50492658082496    1.71260789725170
H         2.66123531133776    0.85048505219497    0.82579590692753
C         2.99894474942859    2.79808021738542    1.69695892393736
H         4.08231218699569    2.69111146243867    1.81948351535441
H         2.81153096839523    3.23418076726817    0.71292315183801
N         2.43843434906479    3.68439874429259    2.73248634112271
H         3.09548705259216    3.74998116724233    3.50918095188822
C         2.12155316516369    5.04529414272210    2.26036894511096
H         2.89578984673404    5.42422002096302    1.58232444649548
H         2.07564924827579    5.70615130916999    3.13265541085038
C         0.75784864405872    5.05840906705672    1.55674616903104
H         0.54551553505077    6.07221225709740    1.19644158508857
H         0.77344608357578    4.38496110189354    0.69339777645611
N        -0.27096574745377    4.58352638373694    2.49455491445343
H        -1.14341405277647    4.34358960705404    2.01640813200436
H        -0.50408299090864    5.30829664212410    3.18231978039699

