182
CSD_code = IBIFEE | q = 0 | S = 0 | Stoichiometry = C82H95O4Sc | MND = 4
Sc        2.43363749587922   -3.02181273521386   12.48827674293194
O         2.70960673138145   -1.58538930779108   11.32404269582720
C         2.45636774984450   -0.75127524708401   10.32533695940512
C         1.93620484488845   -1.23652273846889    9.10010599978876
C         1.95348817984920   -2.70296255532322    8.92156537880370
C         1.14180955286393   -3.56479478920996    9.66010458021886
C         1.12762936496860   -4.92148378269992    9.35676341992280
C         1.96197319749298   -5.43702009373552    8.38055077349098
C         2.84244844428729   -4.60078060754194    7.71649599920127
C         2.84056056078561   -3.24652879184461    7.98960343186742
C         1.53480924573058   -0.34097083352634    8.10884150291416
C         0.79951337923318   -0.70828164199790    6.81385786577998
C         1.80781424967910   -0.78163296021225    5.65790583723287
C        -0.23370779505395    0.38255314823335    6.46495102801028
C         0.02709682290610   -2.03160620685999    6.89260416459209
C         1.81575372466505    1.00505082419095    8.31062362239876
C         2.45957091246646    1.51625833025563    9.43116330422174
C         2.75310846648509    3.02117296572056    9.46589839749835
C         4.09707215497387    3.35546075692014   10.12768020182810
C         2.81259419539691    3.61811629145205    8.04818459132582
C         1.62063554205181    3.73070752443524   10.22207229375775
C         2.74042402445001    0.62617766900757   10.47033002452778
C         3.36349223939983    1.02957790723803   11.75361996366261
C         2.61615980550943    1.60928159972217   12.77401112176711
C         3.23445863023346    2.08911998040919   13.91709254308434
C         4.60769536312440    1.98305493624930   14.06259916836468
C         5.35076703827104    1.33926157445491   13.08551997548264
C         4.73090855486968    0.85201435464810   11.94978163386192
O         1.14331856782304   -2.80562788435639   13.79932286337394
C         0.11083157056630   -2.85208297203321   14.62679824936993
C        -1.12563143279058   -2.30702944176848   14.21295031951808
C        -1.13953319230734   -1.80524918220514   12.81974318073738
C        -0.44604064762939   -0.64289897037346   12.48479663332246
C        -0.52522692853757   -0.12319204078944   11.20545677521187
C        -1.26981530911879   -0.77503652721278   10.23658732819392
C        -1.89044393696026   -1.97575504689610   10.53502647973955
C        -1.81498740211989   -2.49538448505703   11.81655240365732
C        -2.20612783225987   -2.27231232692018   15.09348855303611
C        -3.53710957267122   -1.56844053076162   14.81448858321705
C        -4.48696181938553   -2.53581944861234   14.09495348917123
C        -3.36369865405946   -0.29768374342111   13.97255381444420
C        -4.21183658860934   -1.13011174947702   16.12700454456794
C        -2.05803968758140   -2.94358495285680   16.30152054777516
C        -0.88311482550521   -3.55386058553974   16.72707596206379
C        -0.94995279055301   -4.32888587717904   18.04788485478340
C         0.14686883837239   -5.39047120106349   18.20033008306408
C        -0.86781984779136   -3.34509989567751   19.22366118724560
C        -2.29619939660581   -5.07499057364395   18.14312223727318
C         0.24573283053133   -3.41880440558574   15.91718269367057
C         1.61730803020902   -3.78414308421275   16.32976465470591
C         2.33225857825136   -4.78874141486467   15.68465185821054
C         3.58742205129161   -5.15710784634528   16.13862830678088
C         4.16502195671521   -4.50384399120755   17.21671545185107
C         3.49543180410134   -3.44783984028778   17.81353753578666
C         2.23706096086552   -3.08501118156096   17.36649937672406
O         3.04624359133784   -4.75262851649166   12.28384503168267
C         3.19136945741099   -5.84431015351659   11.54638423493887
C         2.22488626589775   -6.87548782081306   11.61106110259757
C         1.22893285637165   -6.75922649975489   12.70206520738356
C         0.22949176094503   -5.78952773838908   12.73760812372610
C        -0.70534588518927   -5.78471008072384   13.76128765672259
C        -0.63322776224143   -6.71686043496394   14.78121738386234
C         0.40812040317028   -7.62993037107839   14.80370379648146
C         1.33277949178837   -7.64451247880893   13.77627561818790
C         2.33344939296928   -7.97504222785630   10.75815268766167
C         1.29666006852391   -9.09517188391849   10.60604676988036
C        -0.10886202371878   -8.72308543099650   11.09388817132126
C         1.78254453898902  -10.33517886843601   11.36882252766590
C         1.13572156706420   -9.47022022769533    9.11968896208376
C         3.46141687750114   -8.05008073196755    9.94804624295398
C         4.47814937106333   -7.10143051692889    9.91204553315660
C         5.63834554430843   -7.34954585329860    8.94327119318971
C         6.35536404792320   -6.06711341277237    8.50307022468230
C         5.12990169070876   -8.02533467287606    7.65538932551875
C         6.64876012206414   -8.29033220687504    9.61458769418896
C         4.34954937459975   -5.99416095976735   10.74737473758507
C         5.36852907316658   -4.93902010117290   10.94931698923411
C         5.15131630189262   -3.63752535465871   10.50368435574152
C         6.11601085369917   -2.66060981051106   10.68713006187713
C         7.30080177816016   -2.95996496807955   11.33950265842219
C         7.50312607847572   -4.23902176569449   11.83526420431089
C         6.53929664054309   -5.21602681421540   11.65328548325910
O         3.98814372619538   -2.38012527439353   13.85736542219490
C         5.25309374521191   -2.95060214779800   14.20330115728142
C         6.05648503097148   -1.78476810989711   14.75921572605430
C         4.99492642786949   -1.08090815687601   15.59993995589146
C         3.70751075887476   -1.33311378106100   14.80757795646586
H         0.42803639757559   -3.14440029083842   10.37160894157794
H         0.43507036331455   -5.58399411856593    9.85390358467514
H         1.93265420470355   -6.48946689770682    8.14744592951676
H         3.51362713439991   -4.99943945777262    6.96950531811777
H         3.51920480492534   -2.58649283076860    7.46801961949725
H         1.28217319830999   -0.91092410537571    4.71357105924110
H         2.48597301220809   -1.61993909942323    5.78606665489916
H         2.39535987181004    0.13245779642492    5.60497983908301
H        -0.91349967528939    0.01379083544353    5.69949893337642
H         0.23588057952110    1.27799159982382    6.06744447920653
H        -0.82078304322263    0.65887935535278    7.33726052868936
H        -0.65056256491212   -2.10660341424690    6.04336173555846
H        -0.56080421244968   -2.08269193755603    7.80444401872790
H         0.68496419221826   -2.89219414110914    6.85763949732268
H         1.53529513527545    1.68924921843399    7.53541297757817
H         4.36394973629775    4.38853245420832    9.91112951790840
H         4.88410985986178    2.71361942238849    9.73929051234812
H         4.05847347943935    3.25021702996275   11.20535062663859
H         3.18701129322830    4.63857358549242    8.10191325635742
H         1.83115540114381    3.66515515169939    7.58363476927903
H         3.48308060110578    3.04394295377306    7.41293473664457
H         1.75170419664466    4.80967617206426   10.16360650802659
H         1.61579843262617    3.44517456999679   11.26935949735155
H         0.65620820694078    3.47581322942704    9.78649702305269
H         1.54612078348463    1.70448693909158   12.66408462066388
H         2.64457299967338    2.56251115354071   14.68927830013745
H         5.09458741559503    2.39953256080178   14.93301692070701
H         6.42143947750739    1.24237829300865   13.20118855265245
H         5.31479678575966    0.37405946421861   11.17754405943585
H         0.10455262777923   -0.12441412257128   13.25789586623272
H        -0.02101921721339    0.79832307151008   10.95619116890036
H        -1.35602104428371   -0.35024311462414    9.24890118983821
H        -2.44328607448827   -2.50620983324795    9.77162931567333
H        -2.29933990990720   -3.43468190955617   12.04523365423929
H        -5.47577319624514   -2.08993329958033   14.00423613440396
H        -4.57624509271333   -3.46551116189930   14.65366341826467
H        -4.12429327350638   -2.76336840883971   13.09740156537128
H        -4.29132197124780    0.27236882834630   13.97526871942229
H        -3.12103190318890   -0.52177807208670   12.94044617109166
H        -2.57722952314735    0.32852902626002   14.38732951572870
H        -5.04088972915221   -0.46144951701876   15.90370830423082
H        -3.50795903515352   -0.59960224144207   16.76414521776793
H        -4.62199197399997   -1.97326736745661   16.67638528290847
H        -2.90615281644693   -2.98898686061100   16.95649203912732
H        -0.11063161701246   -6.06397221652820   19.01656119998810
H         1.10951964227599   -4.95114564757903   18.43501542513030
H         0.24673512397927   -5.97602205196935   17.29074103826337
H        -1.02138357965854   -3.87275469682503   20.16320994817648
H        -1.62859270623550   -2.57299684620392   19.13124048769406
H         0.10556219619202   -2.86411498464645   19.25856841686790
H        -2.25804357735752   -5.80502340221099   18.94909419017964
H        -2.51190004690429   -5.59929254709635   17.21563200693651
H        -3.12277985396042   -4.40443338989983   18.36012138603755
H         1.88405228180108   -5.31399922385722   14.85669396523708
H         4.10927571074962   -5.97048358976123   15.65380446044000
H         5.13600810051407   -4.80668755454711   17.58304610286544
H         3.94688599564367   -2.91734367390276   18.64103705693729
H         1.71464049860875   -2.26289786636344   17.83603653018220
H         0.15281532053857   -5.05339575310274   11.94423611052046
H        -1.49879928707590   -5.05275438625526   13.76500256780118
H        -1.37927938052258   -6.72399346055712   15.56090561145911
H         0.49505805464273   -8.33577196981109   15.61770839104253
H         2.14702274825701   -8.35482553640674   13.79116216444829
H        -0.81639645515450   -9.48257440937846   10.76425533648922
H        -0.42210004920001   -7.76877616746716   10.67792855196192
H        -0.16988416722561   -8.66885632639050   12.17412488675797
H         1.10777395435296  -11.17127978351672   11.19498885902837
H         1.81607632291314  -10.14016694469325   12.43700697321610
H         2.77961664036409  -10.62062795835895   11.04074180873866
H         0.29718020418543  -10.15429256720646    9.00477455406715
H         2.01137043660838   -9.96980593100687    8.71703650272444
H         0.93396234383211   -8.58416905816736    8.52242042085556
H         3.56602017249066   -8.91501101973123    9.32164264153997
H         6.99610370444625   -6.28326726144530    7.64941762657514
H         6.98473759360715   -5.66254090681093    9.28715841816212
H         5.63682714526270   -5.30686660572881    8.20905726279154
H         5.91127094138083   -8.00685297960974    6.89819689271106
H         4.26171129107967   -7.50068091074093    7.26486521545079
H         4.86728295270735   -9.06746361360205    7.81358251193651
H         7.44566529309238   -8.54458647430228    8.91824941973977
H         6.16077408538404   -9.20860295020897    9.93448916794642
H         7.09319702506369   -7.81812555126733   10.48620568676692
H         4.24871147107865   -3.41035087827015    9.95346336447815
H         5.94479962628786   -1.66799863054389   10.29754758334856
H         8.06165904280201   -2.20371800238623   11.46751517878869
H         8.41628739276473   -4.47588723589269   12.36279985357329
H         6.69692031847900   -6.20936047503249   12.04842120747969
H         5.67644326037609   -3.39814128118289   13.30571183848543
H         5.11130920926554   -3.72185568229743   14.97153223181671
H         6.38788192518820   -1.14246339778834   13.94339149820410
H         6.91659770479063   -2.10771575787726   15.34022610320182
H         5.18998155241243   -0.01849008778919   15.72020504089027
H         4.92757428308497   -1.54457063166162   16.58439200888260
H         2.88781636291132   -1.65017155798549   15.46288876062319
H         3.39496768914657   -0.45514967169484   14.23452856594721

