78
CSD_code = IBIHOS | q = 0 | S = 0 | Stoichiometry = C34H38CuN4P | MND = 3
Cu       11.16644011529293    2.93927660965810    9.79273393211420
P         9.71672040538428    3.20952242251852    7.94767574746547
N        10.68284282099800    1.44882422263977   10.90038452306251
N         8.41072978409752    2.63031983412384    9.76485737440598
N        13.33162927960302    4.54119820839900    8.56461089566143
N        12.19329102017653    5.75032231336289    9.93631359351157
C        11.49123195376081    0.60045407869890   11.53632943191715
H        12.56090990422337    0.70764164385216   11.48117472027905
C        10.76452201598351   -0.36414115478934   12.23743970331207
H        11.17501435890639   -1.15788501272280   12.83265165834469
C         9.43112213733934   -0.07954674370768   12.01958547230456
H         8.57612199158376   -0.60806251904484   12.39697636351552
C         9.39131519564648    1.04679644423814   11.17685908432763
C         8.26595988828817    1.68733219802078   10.63774068497873
H         7.27901760459338    1.33416105856850   10.94912392943026
C         7.49349938139676    3.44789004885678    9.17984687907850
C         6.22075427757388    3.84563745274595    9.57321983122185
H         5.76116393998745    3.43907899937461   10.46276214854064
C         5.56313663873503    4.78461561505100    8.79699178214411
H         4.56847966320538    5.10161485317379    9.07806546724196
C         6.15399836497046    5.33176754084339    7.66503626029952
H         5.61192443394222    6.06418291110344    7.08403225434870
C         7.43106179124302    4.95390873374332    7.27201027354930
H         7.89125998175630    5.38891823979505    6.39525848747559
C         8.09121517613704    4.01219666861539    8.03333351359354
C         9.24652084767653    1.56261101621739    7.32564605889190
C         9.95929369008869    0.45260496556302    7.76030099480440
H        10.77946103786343    0.58942793545381    8.45308372389973
C         9.60902288321057   -0.81384749983145    7.32855045513455
H        10.16183645617168   -1.67454722235986    7.67703815734594
C         8.54666941113072   -0.97723178596886    6.45532977261919
H         8.26922511901301   -1.96602120574436    6.11911302857043
C         7.83568252832936    0.12799950265372    6.01461921548796
H         7.00616392282739    0.00018804588899    5.33335527389476
C         8.18120902549103    1.39485502852576    6.44695519933830
H         7.62564381398993    2.25886506480679    6.10683823428589
C        10.34734193396418    3.98097915441485    6.39743746153251
C        10.66972072837290    5.33344585424264    6.50873756928366
H        10.46554270077891    5.83678927870088    7.44616270325638
C        11.23032354745341    6.02097216535118    5.45126766563192
H        11.46787670155594    7.07159835865325    5.54945463922936
C        11.49272512818835    5.35688528990172    4.26197131620055
H        11.93102432854453    5.88846713824015    3.42944019545576
C        11.19872627121346    4.00784968747511    4.14755832056227
H        11.41094375062999    3.48818029032295    3.22367140753884
C        10.63944765964117    3.31892218795603    5.21047953601783
H        10.42137119018723    2.26425450096661    5.11483528589110
C        13.05890660002019    8.07542880983217    9.48381367911865
H        13.74411612192728    8.54720484268097    8.78571298373037
H        13.38638037550415    8.31300606023577   10.49662660710754
H        12.06962117123403    8.50667772133784    9.33175949912297
C        12.36675072006376    4.48310492752138    9.50905416540930
C        13.76413797243289    5.83993083708755    8.39700977459665
C        13.03485978606824    6.60508909158371    9.25781307041060
C        14.81068856199108    6.27984748644070    7.43620336936400
H        15.08393230345992    7.31159870799226    7.64153448839124
H        14.44589196990595    6.22015434175974    6.41144974442726
H        15.70774931179785    5.67096529940684    7.52195413081385
C        13.85129050468160    3.32193924873735    7.96893208979612
H        13.07228199290277    2.57352705225654    8.16566804290864
C        14.05686582694605    3.40780478855589    6.45993587978592
H        14.07436832876984    2.40153221447065    6.04935625955717
H        14.99568481481260    3.88981006991901    6.20466310479788
H        13.23714651878902    3.94670828835854    5.99458779411431
C        15.12568516973093    2.88967562003696    8.69531944241850
H        14.92524560039595    2.77795451149726    9.75821268624379
H        15.92020263680489    3.62089098494737    8.56559354328224
H        15.46655096442004    1.93594695439469    8.30247545514407
C        11.27064650260985    6.14070469970858   10.98838822485394
H        11.46949939017320    7.19291691780053   11.21676815364096
C         9.82640592283695    5.99968860405362   10.51424535926490
H         9.64005769897812    6.62241728149359    9.64132650062946
H         9.14274913281658    6.30144945333276   11.30298000405361
H         9.62090806188260    4.96361528828140   10.25364183068026
C        11.52383691076489    5.31007642521699   12.24465344461283
H        12.56162373359139    5.40032566245031   12.55786489365047
H        11.30931754976637    4.26234165094537   12.04774179181972
H        10.88356304277494    5.65659373913865   13.05095375923992

