71
CSD_code = IBINUE | q = 0 | S = 0 | Stoichiometry = C25H32BN9NiO2S | MND = 6
Ni        3.89249397613373    1.51613914725277    3.00829461243834
S         1.58142813202418    1.59348796288282    2.35756903075774
N         5.05120941650082    3.99347417038908    2.74789691507457
O         0.40574450562779    8.06564578143093    1.90213761913853
O        -1.05662011370393    7.32608303764306    0.50450734997085
N         5.84669368310550    1.28459132254605    3.51567621407148
N         4.65981732915228    3.57186416694891    5.17270207692934
N         3.63007028417256    2.73956413748928    4.94283501552544
N        -0.16359847160315    7.15334513611862    1.32100101637095
N         6.47312033720305    2.37827930455213    3.97212858667167
N         4.20532568399794    0.14880683578572    1.21450604053893
N         4.37490361672642    3.05315116500641    2.06020862848095
C         4.51893541781173    4.16737248771753    6.37248317816678
N         3.43939570111781    0.12455920469095    3.95926864131957
C         6.69282637085535    0.26128132556629    3.59315434111093
C         0.23677585612847    5.82487637425374    1.60593083650932
C         1.06984967907675    3.22429490678492    2.11841092316576
C         7.90651113131957    0.71722163822953    4.11272333690997
H         8.79063039232610    0.13916999422180    4.29114323396860
C         4.51035268236526    4.88204652200078    0.81098292892451
H         4.39325174569606    5.56451784012920   -0.00580316181050
C         1.63632732815290    4.30103186700814    2.81135964044424
H         2.39488011326676    4.10321779121694    3.55192939134565
C         3.34620380388259    3.69706490908367    6.93180541804780
H         2.92422642756789    3.96660340648884    7.87900167215680
C         3.37625831176748    2.85240500774030   -0.24675657657772
H         2.63726012831560    2.14689037665391    0.11904597040997
H         4.11688787770371    2.30751909115943   -0.83321785895005
H         2.88703063187605    3.57808163158451   -0.89255721642388
C         4.05113229711401    3.56659132837679    0.87117690492226
C         3.58649523507245   -0.35879314332181    0.39333889202455
C         0.04390473530756    3.47405661715823    1.19350989789941
H        -0.40730029086375    2.63937200195628    0.67863872573534
C         5.13472635492806    5.11921026497468    2.01950097472507
C         5.48837009974919    5.14732141998698    6.92870920083134
H         6.46734653682394    4.68894679679096    7.06143320404369
H         5.13383598949076    5.50225132462237    7.89281201014348
H         5.60361046103065    5.99877781758150    6.26038656623076
C         2.81924383129860    2.80260726758230    5.99323345492697
C         1.23340949937862    5.58606623608088    2.55471889140330
H         1.67208986031597    6.42392204788104    3.07486700968852
C        -0.36751391638013    4.75686154261154    0.93803081791786
H        -1.14443584918203    4.96439535538775    0.21797089827111
C         6.36825965502845   -1.13680204741844    3.19958911030302
H         6.25857312445715   -1.75988729462510    4.08787374518077
H         7.17525909042456   -1.54840553565979    2.59641213526814
H         5.44462297153696   -1.16459111520061    2.62984055110977
C         5.77396897524894    6.37630277764597    2.48561755912243
H         5.34852309572806    6.69176055405949    3.43593594847645
H         5.60749916201693    7.15725213562058    1.74856638149620
H         6.84604010038881    6.24244925257470    2.62067527419963
C         1.54259827744484    2.04191265181447    6.07742717757312
H         1.29488058640349    1.62146189533208    5.10592122802221
H         0.73682558386258    2.70212258112107    6.39404229740807
H         1.62314054316620    1.23431800537873    6.80596956793215
C         7.72729432740910    2.06830209699254    4.34297116366817
C         8.70070580701331    3.04596248821222    4.89529596042031
H         8.86951227721481    3.85999533502667    4.19302855491560
H         9.64570322378350    2.54556986662716    5.08961970377462
H         8.33134803892539    3.47433003542926    5.82520092313340
B         5.74121752272521    3.72581515223863    4.10048390159114
C         3.10718688399812   -0.68521952296919    4.70075797412902
C         2.68624521670124   -1.69734747838813    5.61996869793665
H         3.01409476973011   -2.67538602056039    5.26896754997679
H         1.59920816327189   -1.68765685424310    5.69726650968407
H         3.11990509490243   -1.50219423627866    6.60041101897519
C         2.78221149878759   -0.96773887491397   -0.62314752482555
H         3.01296365775249   -2.02950078723361   -0.69571922831682
H         2.97860791572044   -0.48765908354148   -1.58078758754575
H         1.73153528682505   -0.83975487606915   -0.36411570613124
H         6.49556232697916    4.59061547882413    4.36483185889582

