70
CSD_code = IBIPOA | q = 0 | S = 0 | Stoichiometry = C33H24Cl3CrN9 | MND = 6
Cl       15.76648064734013    7.51080163142533   11.00692371883261
Cl        9.26702585192479    6.13055876472788   12.33094552036440
Cl       12.04823864856709   11.93394242968205   14.53951363745088
C        13.09120873625457    9.58575961444676   15.35871857510560
N        13.39961860057426    9.35557746759756   14.00383177876713
C        13.50419468820290    8.71449406577483   16.36108176122507
H        14.12744082511882    7.87824829188585   16.08460241254130
N        13.40456363041576    6.91856613579136   12.69080596719743
N        13.62238626130052    9.56398882954753   11.56435884316418
N        14.48856090611333   10.00705689548302   13.64503846131564
C        14.61606275157746   10.10106004680084   12.32562916645733
C        12.39813452308697   10.73851180885286   15.73354414096141
C        13.66800463356903    9.77600064240166   10.24737486431735
H        12.86710987206716    9.33508201258599    9.66512014843755
N        11.63251481992685    7.51816204545667   11.09992572463376
N        13.07973147196848    5.92078119200193   11.89245941637989
N        11.09734547864390    7.82634540357744   13.92383512630900
N        10.09849140517807    8.59767163292564   14.30679172758015
C        10.75697605477279    7.89273278851433   10.16439713284951
H        10.39028390141232    8.91026389111156   10.23446476310467
C        12.10850351783571    6.24292706111281   11.04462939689109
C         8.98781411282360   10.65362501214030   13.83364217450938
H         8.32087430546892   10.47219231587533   14.65965425874053
C        11.50990337415365    6.10481449863903   15.61150226331844
H        12.02901133138813    6.84036805485084   16.20629006032272
C        10.02575135297512    9.72349737324665   13.60464866135530
C        10.94229276953455    6.51275112292420   14.40883845373333
N        10.93798137490495    9.89569601543497   12.60775673675122
C        14.64490574859652    6.68969221548368   13.31729374891347
C        17.06165639082448    6.84054502815328   13.27209953641313
H        17.96100767331983    7.10519815582793   12.73904340085445
C         8.86686865550313   11.72988504190972   13.00131125937109
H         8.08466032570570   12.45958145324715   13.14629100892989
C        12.02101522096164   10.95281014823222   17.04773436180525
H        11.46409839860766   11.84103973114099   17.30060117356266
C         9.78211701590069   11.87855005148434   11.94892419555696
H         9.71755474603819   12.71556952836891   11.27272312486807
C        14.72850613389140    6.11832105194689   14.58273421115486
H        13.81507262486454    5.79303633539388   15.05645583012315
C        15.83426755834538    6.98918896085643   12.65011322983731
C        13.14907742054245    8.93634160358601   17.67977622464230
H        13.47637914440850    8.24662398695388   18.44333479585012
C        10.78685941413155   10.95234522070068   11.80609346522060
H        11.52908792462732   11.06807647261371   11.02471821092006
C        15.69617857139252   10.80662866871542   11.75091971180342
H        16.46488654240113   11.17616070011507   12.40861949542224
C        10.29720582587600    7.05827807198820    9.17433388173737
H         9.58251863340288    7.41825890244268    8.45207055882962
C        11.65636570770839    5.31974797733031   10.07610446077702
H        12.05194463745561    4.31851502586005   10.10987486376004
C        15.71838031468585   10.99758455588992   10.39847473744560
H        16.52821610243312   11.53261637039041    9.92595335946241
C        17.11930201146242    6.33196360190869   14.55731343409567
H        18.07519959007239    6.21315952909383   15.04342468697575
C        14.66930642164419   10.48109594019635    9.62409852161029
H        14.65313154515448   10.61267322567686    8.55430077664767
C        15.95494091834959    5.94614314067744   15.19945959068073
H        15.99953771471598    5.50384318081811   16.18342330764835
C        10.75078315250007    5.73148616791100    9.14001213339474
H        10.38352418520362    5.05249996604027    8.38533416901284
C        11.38353416620869    4.79654459866658   16.04401429606459
H        11.83343391941436    4.49835395380817   16.97918528266563
C        10.15738613769413    5.59493851473541   13.70778905779509
C        10.04918105545840    4.27916160970125   14.12307790969306
H         9.45667609932778    3.58851702013743   13.54420280783735
C        10.67881277129286    3.87599015316295   15.28707850907651
H        10.59361367342569    2.85138675893220   15.61430617630771
C        12.38478099797383   10.03923980977312   18.02076511097458
H        12.09389607463273   10.20535302004918   19.04641727948032
Cr       12.37702298673697    8.46157750526173   12.74107321016052

