70
CSD_code = IBIQAN | q = 0 | S = 0 | Stoichiometry = C33H24Cl3MoN9 | MND = 6
Mo        5.90286792159276    3.87761755666077    9.90347296383285
Cl        5.76897734301437    7.70707565951320    9.13603415143380
Cl        9.29896948851273    2.93479022357737   12.35246545580745
Cl        5.06835310322630    0.57332169325231    9.03330895105279
N         4.28826682333167    5.13063326661479   10.00016309080997
N         4.07715680549081    4.42759659023353    7.81438803095528
N         7.21547611988568    2.50816692318357   10.20603473521421
N         7.07755076822263    5.09806419374089    9.02124136664889
N         5.01716147771956    2.60444765614717   11.28326422704745
N         7.04140403206464    1.52249351057697   11.09320648211325
N         6.83614268300503    4.90827001666596   11.47971116463518
N         8.05662566209784    5.72422743942040    9.70347855593855
C         3.72204294353997    5.27096012155505    8.75634409727309
C         8.60834688214488    6.16245044171165   13.23578219054134
H         9.28810819463889    6.62630223240035   13.93443094850413
C         6.63523757462022    4.88404683618119   12.80383760257687
H         5.77161209322777    4.32082966464208   13.14644850922911
C         2.83767189214370    6.85074376166230   10.81273079597776
H         2.51077563712286    7.45440816106117   11.64345409890969
C         2.73353625838437    6.25896986012737    8.50428211085624
H         2.36414408870499    6.34442138627062    7.49597041795990
C         8.82806374432784    2.48884560413660    8.41328403049332
H         8.01354819544698    2.23843165367995    7.74463704670976
N         4.95286890140579    3.49561783208970    8.24133872105752
C         3.81340779502203    5.91024183344648   10.98893136340150
H         4.27635922926628    5.77534589277351   11.96048549748878
C         5.45614414442854    0.59653223308262   12.60038489209738
H         6.15833217025417   -0.18824735221905   12.82655291819905
C         5.20331016286888    2.57225635275279    7.21950791571625
C         5.27625901674103    3.00782525614823    5.89117007990411
H         5.06063211142666    4.04533983508500    5.69307291312676
C         6.27301350242451    6.93641893885200    7.67562877823927
C         6.04880220132382    7.55144210085842    6.45813568522470
H         5.53667150804274    8.50009714169314    6.42884104747600
C         3.38242474720047    1.75335788171402   12.81401177522459
H         2.39942691189873    1.84883795162665   13.24558543308760
C         4.23111461210879    0.69096436757422   13.18423652887727
H         3.90317540736953   -0.03359650818683   13.91402318980054
C         7.17691464765519    5.74198529888264    5.36280436698547
H         7.55114469857866    5.27987705504139    4.46207893625281
C         5.71150992157333    0.33252977879164    6.43847303961118
H         5.84081588232177   -0.71373522533213    6.66510481960254
C         6.49985272115591    6.94704160266240    5.29696625570622
H         6.33231713959053    7.42737767675997    4.34538440297331
C         3.81305814492699    2.65772723305210   11.88243357200383
H         3.16163654186526    3.46815382628063   11.57107114698738
C         8.84497991977011    6.20696324892463   11.89490713257205
H         9.70170855860697    6.69763545660602   11.46459824120510
C         6.90899829154472    5.69278699482386    7.75529485381803
C        11.14839776264403    2.91862583834062    8.82998600780520
H        12.15545771664527    3.05246436013814    8.46669891512613
C         8.54421070320593    2.61145463865098    9.77150409427998
C         7.37998127397115    5.11742603088278    6.58140153114907
H         7.91843801081308    4.18513495574888    6.63714401596640
C         7.92767815949201    5.59031665541012   11.00643866162752
C         5.84860633751862    1.56833274536452   11.64437344570101
C        10.89256028787825    3.00796432271777   10.18639679708970
H        11.68749315804425    3.20642528802546   10.88773826996385
C         5.85647512872393    0.80313639045673    5.14521489153917
H         6.12842463784188    0.12209472788290    4.35397636644112
C         2.29396025775541    7.04156315885383    9.52626154638017
H         1.54399278508266    7.80069821489604    9.36525311117326
C         5.37247146529472    1.20520363505320    7.45897064402809
C        10.11838759436361    2.64383912518766    7.94490116616211
H        10.32171704380499    2.54631753199025    6.88908210620195
C         9.60184266248983    2.83694056507918   10.65795304342632
C         5.61223142673643    2.13962774918632    4.87264061081750
H         5.67675792866663    2.50765582630572    3.86014529860595
C         7.46572515502964    5.49279185446567   13.70824248373646
H         7.25507188216643    5.43299522857053   14.76328246162507

