67
CSD_code = IBITIW | q = 0 | S = 0 | Stoichiometry = C32H24N6NiO4 | MND = 6
Ni       -0.24421978469908    3.50504051361265    6.13862950071984
O        -1.47857282037125    4.91020027362764    6.19205981987045
O        -3.26777683747099    8.48106234973816    6.00692463842368
O         0.97638149984574    4.67076225363014    5.33148978909179
O         2.72832006780097    7.79381624649138    3.55325907748653
N        -1.46407776440795    2.35493140691692    6.91884702731218
N         0.99020365109009    2.12780582218562    6.10008645090266
N        -2.12906043151111   -0.85045121034383    8.11737027264977
N         1.69052214854336   -1.21014585157948    6.82053909566710
N        -0.99386940950158    2.94702433166162    4.00852531581851
N         0.51030720747491    4.19248573288749    8.23004598320957
C        -2.65807241058450    4.95292679384178    6.63375059642019
C        -3.39911714464162    6.18830340438450    6.60321891962253
C        -2.75326753912482    7.39023882965513    6.08019182145918
C        -4.69914579808325    6.24654511624844    7.05862321609591
C        -5.36766359496141    5.12806657513002    7.57504300959495
C        -6.78170354286179    5.25749110507061    8.04983977372630
C        -4.68447170478174    3.93829200304496    7.63031651481303
C        -3.35301660575889    3.81256595328497    7.18463668787500
C        -2.70157281085892    2.57294143897314    7.28491817678148
C        -0.88563172769824    1.12814999804105    7.07088593432850
C        -1.56647217505229    0.03335104913633    7.64716968758651
C         0.42431209021333    1.00756186976686    6.63665628969063
C         1.11826462407997   -0.21771394650751    6.74203693326959
C         2.22660599741464    2.12616317048559    5.67105206625686
C         2.86525782361458    3.23039402688898    5.08443465765030
C         4.19706867415268    3.10938282151442    4.63860097940850
C         4.86838993765719    4.14782644516003    4.04164771972287
C         6.28426233778471    4.01632166201241    3.57286984104572
C         4.18678485214311    5.36097751186696    3.87360943570306
C         2.88547657525706    5.54416545568923    4.29062376245892
C         2.22516237489816    6.83095614536055    4.08214874254241
C         2.15704336953207    4.48042687041114    4.93396605596121
C         0.68583904279183    5.50786549727236    8.33508136961214
C         0.94150649169570    6.14820363759796    9.53678258437883
C         1.02419486520603    5.38952063689622   10.69257756050661
C         0.84988002688790    4.01872299441501   10.59241936428504
C         0.59730353885191    3.47257131264349    9.34494708608891
C        -1.17041732316641    3.99769647632385    3.21016027843782
C        -1.35542116804235    3.89133963453423    1.84129602290670
C        -1.36345397995303    2.63193320094397    1.26502181781242
C        -1.19036733948003    1.53155855451632    2.08886081943039
C        -1.01171168857070    1.74181054465521    3.44604720236765
H        -1.71383011842895    7.22072244666946    5.74543231183645
H        -5.20461211775318    7.20126217313338    7.00593821331201
H        -7.41830700373480    5.62418683682032    7.24570245612571
H        -6.84060116067083    5.97120791035937    8.87078067106609
H        -7.16714233689082    4.30090815351925    8.39147818473716
H        -5.16969045352034    3.05741679609397    8.02879325131263
H        -3.27261765612948    1.74231835952554    7.70436497050821
H         2.80744228486562    1.20652081847349    5.76531609545373
H         4.69232105734603    2.15772516487961    4.77742751910478
H         6.66444499208519    3.01483414806649    3.75590788914505
H         6.92099025710656    4.73171087377169    4.09159105162306
H         6.35071659242257    4.22666805941096    2.50645511034084
H         4.68255992763190    6.19822017940708    3.40140893196072
H         1.18591172329044    6.85761242364438    4.45678015105281
H         0.61614503635694    6.06642655840828    7.41135332152946
H         1.07307068589316    7.21848099424753    9.56261255086773
H         1.22181094319808    5.85292970252657   11.64803197948024
H         0.90906010292215    3.38299741724860   11.46215339598582
H         0.46209032278093    2.40195772890013    9.24373440373344
H        -1.16052303679545    4.96408796388920    3.69606734825085
H        -1.49079490089849    4.77842161467403    1.24278251005590
H        -1.50435664818868    2.50891167118642    0.20123843673561
H        -1.19477832948644    0.52898115335086    1.69024934516287
H        -0.88061375875150    0.89440219371080    4.10898800162470

