76
CSD_code = IBOCIM | q = 1 | S = 0 | Stoichiometry = C28H40ClN6Zn(1+) | MND = 5
Zn        2.39707382464683    8.49944423574904    4.40876195575665
Cl        0.97541858741630    7.76626006968599    5.96806583584862
N         3.46311567021635    9.05300012220635    2.64600239705982
C         2.68982280241799   10.14510141404114    2.07557417163379
H         1.79302693059007    9.72547782159954    1.60751215059540
H         3.25740011809259   10.68286093769071    1.30370542423142
N         2.01993763781136   10.57104228945368    4.36590071019011
C         2.26336584934182   11.10410406815471    3.15669194356996
C         2.13924779061414   12.44618929793750    2.88768761306363
H         2.34382428877078   12.82714402233299    1.90122284795926
C         1.73735254118189   13.29910893726195    3.91973105789234
H         1.62008424382973   14.35495355507634    3.73394892270130
C         1.50253926739845   12.77945428284813    5.16133197393850
H         1.19019164553913   13.41188196106966    5.97331370760960
C         1.65343845919686   11.38737584721781    5.38300428594546
N         1.47151287578927   10.84714066131572    6.58585251958820
H         1.41968177877026    9.83718042149392    6.64773019863549
C         1.15126083182151   11.58145850612653    7.78878685061973
H         0.13853827307782   11.99898346984746    7.72060864520496
H         1.85831326286081   12.41204897490592    7.88984590806122
C         1.24325096389306   10.69996914430413    9.04753879206124
C         0.12060517057543    9.66154663900141    9.05654074402253
H        -0.84980784155788   10.15213408091725    9.05980203924973
H         0.19148315829274    9.04680576530012    9.94971030463348
H         0.16869815783309    9.00363237387897    8.19383252852567
C         1.08549200476034   11.61719283296389   10.26397005377361
H         0.14263620232163   12.15697370634460   10.22043850309999
H         1.89477925291225   12.34208617109165   10.31316473359294
H         1.09785141480748   11.03131456839381   11.17875957695325
C         2.60799307959500   10.01007305974528    9.11072998056529
H         2.70555108449110    9.47886647373473   10.05351327262385
H         3.41012166329169   10.74230387087431    9.04816531339976
H         2.73132009426056    9.29152786644895    8.30426610252245
C         4.75723425535529    9.49186888837673    3.14295646318354
H         4.63435315574804   10.48439641587637    3.58692084634602
H         5.49674075247526    9.57204966283147    2.33580598606196
C         5.26239666836716    8.56460891188005    4.21773169172636
N         4.34159546551115    8.02462044012740    5.03647153836908
C         6.61134588789300    8.33618011089555    4.34652687163771
H         7.30964165321229    8.78799416485749    3.66211537634413
C         7.05463981912931    7.52028467609318    5.39112582423773
H         8.10858847500023    7.33333211788165    5.52276295159405
C         6.13726160118852    6.96853426569065    6.23890922792652
H         6.45235478121856    6.34724439202232    7.05800619461809
C         4.75384625551247    7.22032307132551    6.04777748069840
N         3.83787305561848    6.67816236395691    6.84603230264532
H         2.86335517662225    6.91919906344544    6.70108548268993
C         4.13021821407403    5.75540395700478    7.92177487638360
H         4.67310125215169    6.28111502353621    8.71755790872710
H         4.77488862766661    4.95566286177558    7.53958774365341
C         2.86847503586301    5.11229916007186    8.52382229554772
C         3.33572699175948    4.10924743082001    9.58331113966062
H         3.91302355951483    4.60695903840952   10.35895781229344
H         3.95421390453554    3.33295382373986    9.13875000568227
H         2.47910963054478    3.63278042433046   10.05155837524197
C         2.07925713435522    4.37401382445357    7.44133810209557
H         1.25175798529428    3.83420986841260    7.89349851205913
H         2.71222573508381    3.65605380679182    6.92429151657252
H         1.66636263151855    5.06508416626443    6.71169204089425
C         1.98613712308219    6.17016034573606    9.18679449089935
H         2.55532981057667    6.73985364453341    9.91728739246959
H         1.15921089045819    5.68854638838125    9.70147323894156
H         1.56709741328466    6.85380931997798    8.45523154443116
C         3.57173871849988    7.92071691833645    1.74163064885315
H         4.38921170382694    7.27995109103638    2.08975391256801
H         3.80213361245428    8.23693719972768    0.71502852851161
C         2.30696697762672    7.10660877944797    1.76956493792493
N         1.60199153736404    7.15407441860846    2.89895430458025
C         1.91657889741039    6.32603268106558    0.69060095622676
H         2.51184509827449    6.31355413189011   -0.20889930291756
C         0.76017368495248    5.57004659322599    0.79188012419175
H         0.43395731696512    4.95593834142017   -0.03289620193078
C         0.03258372145909    5.62271951797007    1.97084560415329
H        -0.87341866456603    5.05317582096327    2.09554561963316
C         0.49170960204422    6.42917488601265    2.99634551230299
H        -0.04585623378083    6.49818054176937    3.93077905712634

