141
CSD_code = IBODOU | q = 0 | S = 0 | Stoichiometry = C56H76N2NiO6 | MND = 6
Ni       10.52801713472931    7.09467899213757    5.16048855533526
O        11.85253573614873    5.50821134111022    4.44928749034821
O         9.34202672659229    7.09398271693490    0.77997764083836
O         9.02573532503047    8.68118258298656    5.21415727116946
N        10.06956882170010    7.09458814653260    3.46621210741345
C        10.61859075974523    6.22092128195808    2.62100469309678
C        11.58368072046907    5.33350240342672    3.22565850591715
C        12.13723141341630    4.33055998959578    2.37713246139608
C        11.70933407597786    4.29620855432718    1.07516675805053
H        12.12532936546767    3.53073886321364    0.44691236400758
C        10.77522679143589    5.16510114504287    0.46269585622943
C        10.23502268847502    6.16371607327171    1.25153503345009
C        13.14377178677562    3.35171303701780    2.95785546953167
C        12.46935958438049    2.59297766546982    4.10944265297440
H        11.61234230654518    2.03157927950378    3.74218275705440
H        12.12841626569607    3.28984197245576    4.86910856443395
H        13.17237984250914    1.89778664242619    4.56323554331046
C        14.34279710918288    4.14531574482919    3.49423249148564
H        14.82551888260135    4.69291061534963    2.68697261789589
H        15.07028967406245    3.47052104275725    3.94014440742172
H        14.01569837577314    4.85372806003107    4.24915208541118
C        13.65085426548450    2.33523915049669    1.93197865921456
H        14.15148941483093    2.82928441132590    1.10217501174117
H        12.83774108875854    1.72312091758791    1.54807462025538
H        14.36979231480681    1.67383814030294    2.41077702364317
C        10.35448782862325    4.93897872981520   -0.98626315656082
C        10.54446077257398    6.22372958376824   -1.80040346185662
H        10.28349546159214    6.04868280446866   -2.84186998152574
H        11.58315117504311    6.54520683804059   -1.75436867661934
H         9.91787884465170    7.02208034917982   -1.42502109977874
C         8.88133239270761    4.50520811586657   -0.98757901273505
H         8.50945617841856    4.42938318064598   -2.00692939163091
H         8.26153840412822    5.21174422552159   -0.44506176307129
H         8.78008194054514    3.53356658974653   -0.50812599281498
C        11.16142407920322    3.84017443474488   -1.68808715315510
H        10.82091483369899    3.76101059264415   -2.71860519470359
H        11.01481925386879    2.87009262101107   -1.21952549454247
H        12.22241872272243    4.07848317000768   -1.70438067804905
C         9.16897549372749    7.96797386395013    3.01325066504111
C         8.64061547129118    8.85557774509315    4.02197287958473
C         7.73430770641698    9.85817620599227    3.56836888846333
C         7.44632337099891    9.89164557417616    2.22847161095948
H         6.76964387948018   10.65657224890039    1.89576655186573
C         7.94385610889919    9.02243567957338    1.22865785346753
C         8.80886332472480    8.02446140523361    1.63738753422488
C         7.15845550680645   10.83752043403297    4.57723123734021
C         8.32194883974921   11.59616445996483    5.23097594592020
H         8.87707119069238   12.15669521288005    4.48119694705244
H         8.99914706436630   10.89936116706442    5.71555439397889
H         7.94414040129269   12.29215061723369    5.97684462808614
C         6.20339069248073   11.85408988791529    3.94698942971871
H         5.35173302610849   11.36019850636445    3.48434181121461
H         6.71167440840706   12.46493914873468    3.20420441325664
H         5.82536065535506   12.51669294504863    4.72265304507117
C         6.39368686725224   10.04455105002705    5.64562166318564
H         5.56916438334719    9.49738625755745    5.19250306207162
H         5.99115759035994   10.71970416430121    6.39766155574634
H         7.05667892517629    9.33581011842615    6.13233231179956
C         7.57491343500531    9.24721777604198   -0.23453755442265
C         6.52399382556321   10.34591649946709   -0.43327965393886
H         6.29721133866739   10.42426014990637   -1.49470010212259
H         6.88727507415902   11.31626283718806   -0.10375241665805
H         5.60011016954657   10.10802244331457    0.08881511940192
C         8.84535635974943    9.68059226569506   -0.98046798296663
H         8.65024775350488    9.75835096240361   -2.04769923925023
H         9.65351610313851    8.97277300907907   -0.82740014001457
H         9.17661484299483   10.65121330531026   -0.61665977428722
C         6.99971275156474    7.96166989000174   -0.83962008664374
H         6.69667644865302    8.13611245716352   -1.86972526917462
H         6.12791061208712    7.63969918339596   -0.27336676624078
H         7.73080007423334    7.16390012554732   -0.83329811233705
O         9.20347291713197    5.50823014353623    5.87168319308146
O        11.71395848867128    7.09398042837847    9.54101162449491
O        12.03028404896028    8.68119678465890    5.10683806524280
N        10.98642376439287    7.09460205552895    6.85477657276228
C        10.43740160920393    6.22092939130360    7.69997466242373
C         9.47231893304920    5.33351050676315    7.09531079218050
C         8.91875763558578    4.33056695557918    7.94382784479406
C         9.34664817190526    4.29620986234339    9.24579097420048
H         8.93064760242117    3.53073494557949    9.87403086563701
C        10.28075839424508    5.16509520492208    9.85827129203072
C        10.82096520170864    6.16371605123621    9.06944301793204
C         7.91222427543756    3.35171018427039    7.36311771975141
C         8.58666705378291    2.59295602915928    6.21156027240654
H         9.44369106371910    2.03155238259344    6.57880361976458
H         8.92759692397487    3.28982322986639    5.45189368490301
H         7.88363815414678    1.89777511507169    5.75777084713276
C         6.71319014409343    4.14532632636163    6.82677668959700
H         6.23045155600298    4.69292763660436    7.63402503337988
H         5.98571501164687    3.47051577369021    6.38086567734020
H         7.04028782206648    4.85372542251178    6.07184705542360
C         7.40515636069925    2.33523971349366    8.38900744810605
H         6.90452083216734    2.82928505098096    9.21881078599348
H         8.21826966845185    1.72312510489934    8.77291708944116
H         6.68621919965306    1.67383254461451    7.91021581059541
C        10.70149467667575    4.93897011449770   11.30723588515707
C        10.51151953659952    6.22368937367607   12.12141956600713
H        10.77248950451607    6.04865804294255   13.16289148501255
H         9.47283231707905    6.54517588537721   12.07537403687279
H        11.13810441966361    7.02202785816898   11.74602570072816
C        12.17465056390578    4.50520442516043   11.30859363407920
H        12.54653718017978    4.42938484291902   12.32794367587035
H        12.79443421751399    5.21174328081327   10.76607147619270
H        12.27590583520176    3.53356568050624   10.82913753709469
C         9.89460639403030    3.84019513488401   12.00915359885027
H        10.23510845079135    3.76102216527250   13.03967829865932
H        10.04121764630195    2.87012532157230   11.54057658679064
H         8.83361043055459    4.07849722322017   12.02542190769981
C        11.88702481847760    7.96797830050123    7.30774502679755
C        12.41540067936976    8.85557762792054    6.29902623943314
C        13.32169999173365    9.85817762367154    6.75264041158045
C        13.60967674470122    9.89164458826435    8.09253961830564
H        14.28636075412679   10.65656568513303    8.42524852991920
C        13.11213804416595    9.02243299094349    9.09234894689247
C        12.24712980140048    8.02446143104586    8.68361043132855
C        13.89755738778807   10.83751839402960    5.74377681126014
C        12.73406461274979   11.59615188133219    5.09001986247899
H        12.17894937143726   12.15668677009154    5.83979976153381
H        12.05686083084170   10.89935009313708    4.60544361756690
H        13.11187861964712   12.29213673131451    4.34415182458117
C        14.85262807103669   11.85408676201168    6.37401003514493
H        15.70428328766988   11.36019277358018    6.83666011178219
H        14.34434313814178   12.46493883745744    7.11679184847466
H        15.23065905678809   12.51668473364814    5.59834195844189
C        14.66231262274246   10.04454240449256    4.67538266388549
H        15.48683275789707    9.49737859472384    5.12850484102737
H        15.06484646986851   10.71969183139718    3.92334145225354
H        13.99931942387757    9.33579837832747    4.18867472405253
C        13.48107584076489    9.24721518582373   10.55554641062299
C        14.53198504349863   10.34592454434703   10.75428328841642
H        14.75876754654004   10.42427274989782   11.81570323192572
H        14.16870651385931   11.31627113344960   10.42475082580966
H        15.45586952741517   10.10802668892745   10.23219300744852
C        12.21063248234705    9.68061243020930   11.30146240939099
H        12.40573580947337    9.75836551346578   12.36869453500993
H        11.40247651170724    8.97279236515124   11.14839003711784
H        11.87936771963870   10.65123337373683   10.93765712888628
C        14.05628655875769    7.96166720490059   11.16062267006854
H        14.35931708941805    8.13611744250605   12.19072771886481
H        14.92809288032450    7.63969357962967   10.59437604550697
H        13.32519993151488    7.16389755949857   11.15430591257639

