44
CSD_code = IBODEL | q = 1 | S = 0 | Stoichiometry = C14H26ClN2Ru(1+) | MND = 8
Ru        7.21467512883138    0.60761197218816   -2.70774523296168
Cl        6.57588370096781    1.43263910459957   -0.61470328129807
N         7.01276375839529   -1.26926837468195   -1.63516101248300
N         9.18685932520302    0.47423770273057   -1.83843307604090
C         7.92209990965775   -0.37546277785066   -4.64955587827347
C         7.05648864552031    0.70698784017269   -4.78205174105216
C         7.52312380430341    2.04774556518590   -4.39779630035653
C         6.51137674878323    2.61450178572054   -3.61347618856418
C         5.36763352233280    1.70817160884758   -3.58249136947063
C         5.66023384670923    0.57259566657548   -4.34742834408966
C         8.76425275565374    2.70049213802527   -4.90823305717398
H         9.56417786572815    1.98007286139100   -5.07001442288649
H         8.54398523760048    3.16641823584828   -5.87079202283223
H         9.11600022892356    3.48012230548535   -4.23632302033194
C         6.48329346467953    3.97288714305277   -3.00622845486061
H         6.21693594379877    3.91326752526365   -1.95120277198514
H         7.44311150965725    4.47357119378106   -3.09660257982625
H         5.72548799061273    4.57848163508399   -3.50376507473657
C         4.07017512613288    2.06174989945449   -2.94466584601680
H         4.21753202652356    2.32318177010677   -1.89672550212772
H         3.64442277830834    2.93208561369070   -3.44456086595098
H         3.35888606637376    1.24270891576563   -3.00433863054985
C         4.71616444280929   -0.48723035662173   -4.80395005875692
H         5.23716502510310   -1.40610376565529   -5.06230219628386
H         3.95747379030788   -0.70378038693923   -4.05525614303899
H         4.20473133933684   -0.13425704167149   -5.70183891407276
C         6.18751082022084   -2.34778613196134   -2.17184770411957
H         5.18573909608507   -1.97513075664051   -2.37307916578074
H         6.62289033968381   -2.73140944403084   -3.09378099830376
H         6.11216218629627   -3.17536563699635   -1.46027338182159
C         8.35351254587402   -1.74117883851351   -1.25929919385328
C         9.17187612086943   -0.54576273560523   -0.77727170332469
C         9.74330532924107    1.74143640653766   -1.35932372328509
H         9.82626000185247    2.44190845112922   -2.18741330019472
H         9.07868853038549    2.16018994612282   -0.60403863599620
H        10.73359974019412    1.59595132315717   -0.91926767418972
H         7.54870170119364   -1.37540721679898   -4.83333797747878
H         8.97310146352327   -0.24752184308367   -4.88660193487971
H         8.82166541773549   -2.19181367438547   -2.14244509513655
H         8.29574864441530   -2.50150486791648   -0.47100320015172
H        10.18927058968864   -0.85601496348339   -0.51244249948315
H         8.69488865957138   -0.10333813205858    0.10447095129124
H         9.80426702778873    0.13246019280576   -2.58105511352126
H         6.55647780312781   -0.93263985783144   -0.77394766375176

