102
CSD_code = IBOGUD | q = 0 | S = 0 | Stoichiometry = C44H47N7O3Os | MND = 6
Os        2.64847399859351    1.85121203484367   13.25880238195512
O         3.07218989748258    2.86579786402127   11.50125379593388
O         4.22604706112007   -4.02577690406365   12.07939053797652
O         0.01070461125599   -3.26492934599401   13.91665405163264
N         2.33185214352060    0.42151326987899   11.80783068254669
N         4.46176110836341    0.96782700861740   13.44549201954502
N         3.29346209490145   -0.22423862561374   15.03787116067781
N         2.37678208696932    0.70666144565136   14.80705453458766
N         0.86373223463134    2.81876826296282   13.10076843704717
N         2.23780376554903    4.53178785324383   13.84915486651942
N         3.04445138679991    3.53102605431377   14.14380145956748
C         3.06150053071196    2.16042719503973   10.42029579875311
C         3.42748465664389    2.65719634921041    9.14416116951773
C         3.35983367104793    1.79115682678440    8.07583707399896
H         3.62913782830666    2.15620191573588    7.09974825095190
C         2.94349039839833    0.45066011290844    8.17954287807187
C         2.58511191398300   -0.03546776552781    9.41529680401746
H         2.23585923732241   -1.04581315138030    9.55209718261805
C         2.65677385990922    0.78903392263895   10.54720635432761
C         3.84747333905944    4.11415205093637    9.01365431160360
C         2.68126038906889    5.00514387842535    9.46526999129226
H         2.95546059676085    6.05494314050443    9.38154806333602
H         2.42280149152193    4.79715565335039   10.49979647791809
H         1.80491022892528    4.82328911128738    8.84546529745803
C         4.22018015621938    4.49654430616812    7.57869283955883
H         5.05796932066904    3.90279399020953    7.21913434312437
H         4.51434598927488    5.54397073142958    7.55114548382294
H         3.37515508261781    4.36853186812937    6.90583388765797
C         5.06590299801657    4.37078259915225    9.91231409734314
H         5.88877327844733    3.71501875639874    9.63104196218194
H         4.81165476214770    4.19205768426482   10.95319072882158
H         5.39575719735515    5.40299643457858    9.81222022069783
C         2.90405709001209   -0.40055645150462    6.91939564437519
C         1.92794387670464    0.22860390798711    5.91534997108477
H         0.93342311405857    0.29415635181855    6.35149079122510
H         1.87162071465147   -0.37985868737768    5.01492316084099
H         2.24112433207886    1.22914266088600    5.63079864280884
C         4.31082838502692   -0.46098174628336    6.30674518374383
H         4.66580436244054    0.52678089586622    6.02706374725128
H         4.30515888414469   -1.08506394570640    5.41534015600751
H         5.01345935749894   -0.88558441750646    7.02096208655967
C         2.44460687443564   -1.83534327766407    7.19356680743678
H         3.11363783165560   -2.33500476607912    7.89040244537398
H         2.44383550335582   -2.40074197409072    6.26360574021734
H         1.43563940254313   -1.85251960926997    7.59839781867359
C         2.23588123028767   -0.92432190994055   12.14408435818746
C         1.12108812715353   -1.38361026832172   12.84470091125967
H         0.32774285306809   -0.68864041752569   13.06729463764436
C         1.06195715826208   -2.70935161955022   13.25157233077691
C         2.12332157987348   -3.56554314020790   12.97908089861014
H         2.08311569556358   -4.58907017914790   13.30998682942061
C         3.23781210454152   -3.10879272477541   12.28355920083819
C         3.28839608972172   -1.79458344177483   11.84526870541102
H         4.14165370704511   -1.40285683842665   11.31352875876549
C         5.58343256659118    1.17458313022157   12.76096504262846
H         5.58370569154922    2.02685295967011   12.09388260735156
C         6.68427463210662    0.35551106462297   12.86821516549556
H         7.56695349708779    0.55626477128221   12.28352826319531
C         6.63041365179151   -0.74254948445241   13.73793340914907
H         7.48241748178031   -1.39991756968500   13.83078857910386
C         5.49217892518736   -0.96888450443713   14.46323721185452
H         5.38805505604368   -1.79627960067082   15.14452188216406
C         4.39886206645153   -0.09099344460495   14.31031610320961
C         1.29984923990325    0.62589197417049   15.68927968382652
C         0.95820902334081   -0.59519455968996   16.28233815027167
H         1.54510448299833   -1.46579678235603   16.03521684837920
C        -0.11329264079931   -0.67243087991301   17.14934673005684
H        -0.37228972168132   -1.62291668746836   17.59223285305711
C        -0.85618500437243    0.45886675840061   17.44999518353722
H        -1.69542063923325    0.39458377436317   18.12592983142526
C        -0.50597408064523    1.67742503685241   16.88798496128926
H        -1.06499509354995    2.56722502673735   17.13739390909705
C         0.56273367720384    1.76739624618310   16.01883189962860
H         0.85451502461263    2.72739568047002   15.61856825279098
C        -0.31777450161123    2.42954893435802   12.62687793423387
H        -0.42908927592811    1.36944615135301   12.44022985279402
C        -1.34873899603925    3.30157753335423   12.36350084687634
H        -2.28252873374506    2.93365134047542   11.97129761179628
C        -1.15392194136658    4.67037137285145   12.59391418838602
H        -1.94654833172788    5.37250663356783   12.38398447056039
C         0.04994871738863    5.10005742410342   13.08047221946878
H         0.26335285277685    6.13807767957241   13.27341273373181
C         1.06647906364045    4.15576131987961   13.33712646207609
C         4.27647136620447    3.91137596151155   14.66269963722982
C         4.87983738790690    5.11267038824089   14.27923431710886
H         4.35560502354648    5.75174815787267   13.58609136040374
C         6.12664590327531    5.44708947759301   14.76730211123854
H         6.59369875465854    6.36938815845754   14.45432585745161
C         6.78195544385182    4.60510364868863   15.65220343658730
H         7.75883161906183    4.86853528717011   16.02909095694902
C         6.17481244984481    3.42647164521821   16.06051089377247
H         6.67360230025544    2.77827854694044   16.76598705858277
C         4.93094095964694    3.07795174428117   15.57599784159399
H         4.44448224719310    2.17374838256955   15.91611296809242
C         5.38108019063401   -3.61908499924304   11.38873540132009
H         5.14913072163220   -3.30056897444411   10.36682081267019
H         6.02661430655819   -4.49538437530270   11.35292122830851
H         5.89803168792728   -2.80708488464161   11.91133898360713
C        -1.15072606232647   -2.49205673109978   14.10121613791515
H        -0.96387334673501   -1.62281981623800   14.73993377266513
H        -1.86583175246509   -3.15103927781183   14.59142905119351
H        -1.56464148017791   -2.15953656847799   13.14343931430821

