55
CSD_code = IBONAR | q = 1 | S = 0 | Stoichiometry = C25H22ClN6Ru(1+) | MND = 6
Ru        7.03628347804157    6.68474153142788    8.23583599699589
Cl        4.93918375481145    7.55972238762963    7.52606716339152
N         6.79565153651996    4.89471642723942    7.15380046418004
N         9.11553206053984    4.59034908780200    8.82666593173234
N        10.03090413443142    6.49407725218385    8.50269631270688
N         8.10549380523074    7.65612536901443    6.70229336281620
N         7.07709752612267    8.29839991745165    9.39531468780670
N         5.97463507270663    5.99558720947729    9.76896576993892
C         6.02111145842149    4.92890667974876    6.06537033616843
H         5.56925511873756    5.88267089397155    5.83155245164898
C         5.72672493079548    3.81840016374606    5.29488749616457
H         5.08930112168493    3.92166268000091    4.43227869709076
C         6.25666329263792    2.59146891229780    5.65620482354006
H         6.06158301316220    1.70173965392967    5.07952300068641
C         7.03576485951694    2.53864612039229    6.80119541574185
H         7.44834206947733    1.60003411546922    7.13683333404254
C         7.27574672557428    3.69344537367704    7.53076691300941
C         8.08273959011609    3.59267861118442    8.81175023924063
H         7.42272598118218    3.74045247188241    9.67576914420589
H         8.53774211578719    2.60369741106837    8.88843772488198
C         8.83605706413790    5.89728654713026    8.66798144403121
C        10.46675230750953    4.37054293047159    8.76752386183925
H        10.90102905931612    3.39923462727442    8.88246134555936
C        11.04628880542709    5.57601703421769    8.56262335795284
H        12.07762060390404    5.84510969462370    8.46653816210744
C        10.13773211507661    7.86560804875017    8.09086368999995
H        11.19056358330619    8.11757502955975    7.95260619411309
H         9.72460652754979    8.51301289202303    8.87471251844867
C         9.37797779451986    8.08883626926191    6.79665770813298
C        10.00924209379194    8.76183483634695    5.76111345144261
H        11.03332145930063    9.08044936642902    5.87748375349244
C         9.31979728761818    9.03633563774378    4.59061503397791
H         9.79767649758473    9.55894822536541    3.77774949306761
C         7.99661141999875    8.63608314539468    4.51476200624497
H         7.39559555284228    8.84785856301063    3.64581666361888
C         7.43983689038912    7.95597722783594    5.58282131520320
H         6.39237713906715    7.68821823957124    5.56575889024007
C         7.42107767185067    9.53916017422443    9.04179439773761
H         7.73169391850148    9.68615874129035    8.01586921417992
C         7.37140012228719   10.61873185027448    9.90099559931823
H         7.65645750285151   11.59723128985027    9.55072779287849
C         6.94916277078285   10.41737967247247   11.20905544378364
H         6.92173000834803   11.23071426752377   11.91587838232827
C         6.52365409197204    9.15353647808253   11.56736344593176
H         6.14266013007631    8.97580219541960   12.55889484936444
C         6.56696398262293    8.11548690354310   10.63556001288120
C         5.94126722328438    6.81451907158287   10.84585540283390
C         5.23008306234718    6.47617912306365   11.99805596150859
H         5.24405239676842    7.12883228290185   12.85462914495734
C         4.48685777558149    5.31287269024534   12.03042337553619
H         3.93084820864369    5.03690559463536   12.91160126994465
C         4.44168014936306    4.53342272564869   10.88139855073402
H         3.82884460828535    3.64844148149563   10.83070802807911
C         5.19784020872652    4.90986755665053    9.78934781944614
H         5.15825832087720    4.32060731648530    8.88284315309088

