45
CSD_code = IBONUL | q = 0 | S = 0 | Stoichiometry = C21H17N5NiO | MND = 4
Ni        2.18630487744950   11.67413679015237    4.37806539366668
O         1.33410664899373   11.30177969845404    2.71755172398991
N         3.05377009291583   11.96409210239668    5.97535788806024
N         3.84585753159589   14.99227996413657    7.77488863685551
N         2.72375480228404   16.49163396817289    5.76433920236515
N         1.92205821058705   13.47562366667909    3.98876725345810
N         2.43757163292210    9.80478389471098    4.70543450414185
C         3.47644257758048   12.94417372442032    6.80703025376170
C         3.33131454187193   14.38088672483065    6.71637664930169
C         3.82677534553649   16.32359636051926    7.87143424887328
C         3.25175260498387   17.10146243291733    6.82904194096830
C         2.73771156973164   15.17133791319293    5.66786662309666
C         2.11615921331997   14.72236129537570    4.43899786605416
C         1.28139229239889   13.58508785105417    2.76189074302729
C         1.07659768274349   14.94659382523254    2.44982269484289
H         0.60412919870106   15.32045973405101    1.56272672651606
C         1.59679511257120   15.65620243362448    3.49564547810687
H         1.63093501563047   16.71810821427820    3.62602391547473
C         1.00055730565080   12.37066185593420    2.14335481834365
H         0.50106493313368   12.31379525383693    1.17213013326538
C         3.24407841094687   18.50880877937905    6.93021563630750
H         2.80453908446951   19.08044623265912    6.12761086904008
C         3.78913054738528   19.10516070751632    8.03131256282925
H         3.79131038831953   20.18183210868343    8.11972417272968
C         4.35565961874135   18.33522727449364    9.06625417687534
H         4.77701304232753   18.84153787060414    9.92257049411605
C         4.37811085545140   16.97143932624023    8.99784873591704
H         4.80793403194806   16.36581774418882    9.78041281571265
C         4.14928940875325   12.35819069242719    7.90763581921220
H         4.58086946188928   12.91481777563094    8.71344001825414
C         4.13344397708042   10.99567525798339    7.73324810269013
H         4.55162529131166   10.24329822964466    8.37303821180104
C         3.44960633073784   10.76811403099609    6.53042281092943
C         3.09119355969145    9.61474709795891    5.80912129373362
H         3.35099365595960    8.61796656563450    6.15970483633892
C         1.97386025245343    8.67138541133484    3.94294031837857
H         2.50123142392470    7.76336654645342    4.26463042380868
H         2.18199414160915    8.85131366946850    2.88466554157824
C         0.46145817451744    8.48269858976757    4.12477552686885
H        -0.03037270460585    9.42964322987485    3.89125181985025
H         0.11677177158523    7.73238958715644    3.41135598360838
C         0.10408780528401    8.05364226482842    5.54182906138854
H         0.57672676800763    7.10428492088332    5.78778784499526
H        -0.97200369117355    7.93397207084446    5.63973763381799
H         0.42979720278819    8.80116631137368    6.26251859504637

