78
CSD_code = IBOPEX | q = 1 | S = 0 | Stoichiometry = C40H29N3O5Re(1+) | MND = 6
Re       12.01141244418845    0.71047905527825   28.69053321639088
N        10.80720166987177    2.34542420172847   27.74424688593621
O        12.76724093853729    2.60882740725028   31.01212362415496
C        12.51486963133481    1.90427379570845   30.14921263185348
C        12.78321542138623   -0.82480825589558   29.61098022091544
N         9.89143949559686    0.45360888911911   29.36678317915036
O        13.17573670773183   -1.74656067980211   30.15875466789844
N        11.13959335613035   -0.57859754330347   27.10740814897473
O        14.76606712917829    1.47821150879695   27.49997377965261
C        13.75233206923725    1.15883973893081   27.92201959583301
O         3.81061987259143    0.06772646800926   33.15273195146661
C        11.84982444157444   -1.15045901828939   26.06984820117464
O         3.79342847052296   -2.04043733768396   32.38272379327292
C        13.23530037107268   -1.33764314522707   26.20519879247988
H        13.71146474398681   -1.09288667020121   27.14435753071793
C        13.98127724486882   -1.86279320252396   25.18031598837208
H        15.04265426450593   -2.00371362716319   25.30751556739164
C        13.36633572715625   -2.22028781825197   23.98092114051420
H        13.95588408188710   -2.61984407552500   23.17094814077213
C        12.00707730558261   -2.09103506095550   23.84272917269407
H        11.54378108338559   -2.40774096893119   22.92325948527515
C        11.21326543170083   -1.57742513903611   24.88004663578583
C         9.77875293262467   -1.50362921374708   24.80402061811715
C         9.04529079092835   -1.87963003205883   23.66837126942395
H         9.55901550723352   -2.19235356338550   22.77486487788698
C         7.67322259455152   -1.86294825783722   23.67651348128919
H         7.12442581453778   -2.16014416482214   22.79654537382509
C         6.98078141659128   -1.47242022894322   24.82405314273612
H         5.90203869468046   -1.47661319600688   24.82814036526477
C         7.66876834060050   -1.07899497605791   25.94265155426386
H         7.10985944242708   -0.77839425145534   26.81456270675703
C         9.07737918044749   -1.07066584035657   25.95460544790446
C         9.83446908551649   -0.59430148255215   27.07394390265804
C         9.06231042102889   -0.07551326135471   28.26272342093609
H         8.38327708256212    0.70684131813774   27.90332919922868
H         8.43304825655949   -0.89199402797313   28.63285270121967
C        11.11499562679304    3.04743549650516   26.60500005153013
C        12.38110795462003    3.17202886553146   24.55401883422026
H        13.10628235888176    2.74739479784731   23.87787834393743
C        11.77022834984254    4.38928188293035   24.25138723540709
H        12.03067949077013    4.90898464138474   23.34279496822362
C        10.83351679799385    4.92226386764888   25.10147641308372
H        10.36187016769203    5.85500499032999   24.84024821288043
C        10.47529669164859    4.27121903003045   26.29205068175708
C         9.49438028397483    4.78531494550763   27.20986024435905
C         8.86809824098073    6.03096063897858   27.05201487335119
H         9.13044080837715    6.66297431926770   26.22009539268964
C         7.92907466944235    6.46804501889015   27.95240197620417
H         7.45907728574285    7.42953848254762   27.81642151765749
C         7.58082771905909    5.67853140776869   29.05081492358059
H         6.84783331393977    6.03491700394449   29.75727501138120
C         8.17589728723269    4.45823649303766   29.23663038631803
H         7.91116074579963    3.87366505721862   30.10323158202566
C         9.14152691398044    3.98559167459988   28.32613126343644
C         9.82946317244237    2.74985394812625   28.51513238609171
C         9.45563644123262    1.83225018281888   29.65630862366542
H         9.95105081433699    2.18028308717371   30.57038675497683
H         8.37202806764494    1.85967119947252   29.82452233173989
C         9.76406465362717   -0.40239892982460   30.57959591195675
H        10.41442000060506    0.02252404836382   31.35054174858227
H        10.15091147218799   -1.39239356272034   30.31988790974976
C         8.36205668790969   -0.53942008050983   31.12033669999511
C         7.82575823135450    0.42987211114880   31.96426942815270
H         8.43157660334338    1.26604934725427   32.28211678738239
C         6.53065786412647    0.31653385629033   32.42916676989565
H         6.10436694455102    1.06404026590269   33.08048575434168
C         5.75128833873511   -0.77989986360356   32.07241054046959
C         6.28997780299680   -1.77190718757018   31.26140437689175
H         5.69635822664817   -2.63529039618939   31.00713466103073
C         7.58457948541576   -1.64727566994271   30.79152920203258
H         8.00332535868786   -2.44169023864851   30.18758335563841
C         4.35846817474565   -0.85054544242247   32.59753328840517
C         2.46795033707882   -2.19878060582080   32.87484470917936
H         2.18615514937555   -3.22636038460250   32.66294923734441
H         1.79285926398627   -1.50274497916601   32.37381403041518
H         2.43808198104212   -2.00492126783878   33.94831511972676
C        12.05623613927987    2.51271915603446   25.71128725627003
H        12.51717261952852    1.56094544870603   25.93480079188683

