60
CSD_code = IBUDEP | q = -1 | S = 0 | Stoichiometry = C27H27MoO5(1-) | MND = 5
Mo        2.21743659752828    1.21242249528955    6.64909410707052
O         2.74785374722524   -0.56181949010749    6.29896778775988
O         3.88056356929421    1.58263525112860    5.70472344968721
O         2.21118807901836    3.11724055425740    6.68363780943631
O         2.20602148416458    1.03545991668954    8.30295902139213
O         0.69552547536050    1.12277650419447    5.99314225919448
C         2.47238800254561   -1.77789427937746    5.89211920661749
C         3.41213836220834   -2.49849581592624    5.13804717553429
H         4.36274751681764   -2.02747470436775    4.92560315024681
C         3.12916037232295   -3.76161275659874    4.66009401775539
H         3.86881997497318   -4.29078213744916    4.07358285978331
C         1.90369955745603   -4.35045632396201    4.92895681624461
H         1.67958536284430   -5.34022497787111    4.55465876919453
C         0.97486182011681   -3.66886697414837    5.69468856488114
H         0.03157823824430   -4.14218723434142    5.93128713215138
C         1.22835475434005   -2.39521199441742    6.19280156671173
C         0.28894569344904   -1.67758784367582    7.04275496920342
H         0.74218713986972   -0.93169878952953    7.69312614118920
C        -1.03211974865896   -1.83118964259928    7.06340409451596
H        -1.52477952424602   -2.53294434119448    6.40002752514883
C        -1.93157878161948   -1.04661504042891    7.95979358353172
H        -2.45749270289548   -1.70391495150484    8.65618024351243
H        -2.68209919663274   -0.51824733001425    7.37161728966774
H        -1.35070477693379   -0.31855540691562    8.52004734081749
C         4.63750079284564    1.05502590722994    4.77328899278580
C         6.03429224124272    1.05847733257253    4.91320134488012
H         6.45284135138129    1.50067791047406    5.80763848542676
C         6.85152153862379    0.49942092501359    3.95205845822008
H         7.92520103360761    0.51116354217058    4.08880103158532
C         6.30363494283713   -0.07803125544836    2.81735838081616
H         6.94387808845234   -0.51540897601280    2.06354532418985
C         4.92926011619644   -0.09039507115670    2.65701364574900
H         4.49540088793943   -0.53343211264791    1.77055706976319
C         4.08153849951316    0.46737547645133    3.60554513848090
C         2.62902402375821    0.44349172473422    3.47439668365332
H         2.10670636620690    1.30268466515282    3.89720050478199
C         1.91829325354321   -0.55592535820268    2.96023012839018
H         2.41616701683159   -1.42710973526286    2.55066999710116
C         0.42628730534891   -0.58440532305417    2.95051200244991
H         0.03858749863908    0.15298568393481    3.65038410070844
H         0.07572247413644   -1.56939299615494    3.25565783121360
H         0.03394650933728   -0.37939736057472    1.95135744882881
C         2.43632450225083    3.97991033604334    7.64844652230172
C         3.67537960563682    4.62991282589136    7.73774864634632
H         4.43618697211843    4.36327882778020    7.01426004142695
C         3.92234705058718    5.56556799144215    8.72140159718627
H         4.88868382327998    6.05030784752293    8.77521591381957
C         2.93460211761536    5.88285042917331    9.64135518960950
H         3.12591444266328    6.61512628731879   10.41424159139138
C         1.70638288172164    5.25212119167589    9.57117789352358
H         0.94808259053540    5.49627878752946   10.30178236079190
C         1.42289050772497    4.30330954309605    8.59228775577517
C         0.15250112876967    3.60346773229296    8.48579135952665
H         0.15148082455198    2.80368702761375    7.74626572485799
C        -0.95965583567872    3.83266854620026    9.18065084812563
H        -1.01452349848996    4.61933408737310    9.92388300948966
C        -2.21120177590218    3.03761750713854    8.99816307511487
H        -2.06591888455103    2.28764637616408    8.22524895526831
H        -3.04343507171803    3.68572731464495    8.71610193514316
H        -2.48482633832187    2.53642767477230    9.92814613010850

