96
CSD_code = IBUGIX | q = 0 | S = 0 | Stoichiometry = C51H39CuN2OP2 | MND = 4
Cu        3.01638001856290   -0.63392976593377   14.12043735172058
P         0.76326885332957   -0.33291787012214   13.72337717376737
P         3.16222768990114   -1.59630635210742   16.17169181563817
O         1.54929810070091    0.48832183650984   16.38193417197926
N         4.19027928683426    0.69719070014519   13.34193409415222
N         3.80799867635224   -1.87759560489188   12.63647930933340
C         4.53206196954195    1.99552239234132   13.40784524350710
C         5.53334413403157    2.29304170208583   12.42338354516116
C         5.78017278588925    1.08886865474172   11.74904854087210
H         6.46747682860566    0.91871601420904   10.94207249969567
C         4.93895630279815    0.14007287466884   12.33456094905558
C         4.73394456850549   -1.22567756679698   12.02472140517317
H         5.33716657659911   -1.68267798861786   11.23621926861470
C         3.54671159914466   -3.21828295038086   12.46927116601038
C         4.54967588639556   -4.18949555536708   12.49616269035783
H         5.57965612079176   -3.88174818697353   12.60928120268234
C         4.22011059554702   -5.52818116069445   12.41433898986777
H         5.00282112378749   -6.27282528006735   12.44456232538170
C         2.89699837531310   -5.92008351049443   12.29497811259195
H         2.64552795626802   -6.96848728359433   12.22801627361565
C         1.89556583975469   -4.96067391133736   12.26301060668326
H         0.86127394815651   -5.26109323445029   12.16759859098739
C         2.21382403420057   -3.62239339088712   12.35532025926349
H         1.44708529143899   -2.85793365596758   12.32072603887317
C         4.04647476706756    2.99462190766031   14.25858693794021
H         3.29140365894242    2.75975850147046   14.99594560980639
C         4.55381095677873    4.26115356602081   14.12212570427536
H         4.19466658344696    5.05389645920715   14.76439533569464
C         5.53675166227935    4.56142040717662   13.16157204182364
H         5.90478156204752    5.57611942534619   13.09577486376728
C         6.02907665827352    3.59998372322590   12.31805508663583
H         6.78492159114788    3.83718967617306   11.58189433678298
C         0.46330300972442   -0.03678179794968   11.95942330995729
C         1.37163567733766    0.80659341205255   11.31982411360517
H         2.14664582416884    1.28531468404391   11.90452248628011
C         1.28180995435680    1.01633680622824    9.95844759652505
H         1.98413387326707    1.67433048146999    9.46814352163070
C         0.29710259181485    0.37364218448118    9.22245327117809
H         0.22794653853044    0.53413701313752    8.15655921310068
C        -0.59189754021228   -0.48201559592891    9.85124781306620
H        -1.35236526264568   -0.98970765180690    9.27539870972353
C        -0.50978504466870   -0.69506983689329   11.21648447817025
H        -1.20151308880311   -1.36885035401306   11.70396169695427
C        -0.75003100702240   -1.22313873157396   14.24809695430308
C        -1.98504801984271   -0.59686652576715   14.38436642836881
H        -2.08384056349079    0.45556016129813   14.15646124979664
C        -3.08190560913527   -1.32332987024401   14.80841125036049
H        -4.04063223064280   -0.83565554403230   14.91148156273851
C        -2.95672729485593   -2.67228726825583   15.10083378644408
H        -3.81720736306598   -3.23323671442538   15.43460083908007
C        -1.72955798403690   -3.29930091284864   14.96669203850232
H        -1.62905629737871   -4.34994917695364   15.19614103060117
C        -0.62961383131029   -2.57621524871126   14.54447492883816
H         0.33670705476846   -3.05181148405385   14.44514731768623
C         0.43172862911306    1.31529716492664   14.43607998338405
C        -0.15419979572105    2.37897562615114   13.76026865942873
H        -0.48933761840340    2.24498423509295   12.74129507342478
C        -0.29256181416185    3.60867151737461   14.37988821511283
H        -0.74774938894836    4.42853328925556   13.84463259638924
C         0.15997840330780    3.79549054424458   15.67538040019804
H         0.05965070176725    4.75916510967069   16.15116534468891
C         0.75057031074249    2.74834975496323   16.36309787586412
H         1.12598032604395    2.87702984584785   17.36752409965001
C         0.88206494262248    1.51623856906433   15.74461839205470
C         0.83186610215768   -0.54410654627041   16.91263788582643
C        -0.47066293040207   -0.45882404623544   17.37227507011088
H        -1.02232875659505    0.46546710288638   17.27727812302350
C        -1.04867067722745   -1.57867723033863   17.94799662715606
H        -2.06492357979630   -1.52334010852948   18.30774597530386
C        -0.33495641154137   -2.75928358623947   18.06833114861348
H        -0.79607548393739   -3.62024694904918   18.52836108524212
C         0.96387602704627   -2.84715361759790   17.59434129596413
H         1.51371618490948   -3.77381734085424   17.67461577685106
C         1.55492248592931   -1.74011860752712   17.00681041642532
C         4.07864988052827   -0.58398977345086   17.37377546997666
C         4.84510742476755    0.46802547078980   16.88845152874354
H         4.87868468852150    0.64406987763945   15.82142065816131
C         5.53884633638350    1.28041114570110   17.76771042639583
H         6.12974453794807    2.10134448915799   17.38872860769384
C         5.46796720372728    1.04168513897826   19.13042162689080
H         6.00763114946131    1.67557719483848   19.81911386221810
C         4.70222059997340   -0.00783479160869   19.61601092183288
H         4.64813706486840   -0.18943075787186   20.68003291999669
C         4.00384408065895   -0.82090688224046   18.74280862651399
H         3.40095878496236   -1.63878400009286   19.11487177669943
C         3.88740945235391   -3.25011531170061   16.36758881947654
C         3.22403594630743   -4.31447985297294   15.75873437151284
H         2.27860004323895   -4.13603986905090   15.26440278403158
C         3.77109960275794   -5.58188006754182   15.77557929206195
H         3.24514720709650   -6.40168035758499   15.30886890861988
C         5.00199264965175   -5.79505702675567   16.37617245951158
H         5.43536353730396   -6.78436704759549   16.38433344023568
C         5.68208858880038   -4.73575579955154   16.95383425955265
H         6.64827411611756   -4.89905727245970   17.40936919979617
C         5.13313670627832   -3.46578401138657   16.94713561913023
H         5.66975535034925   -2.63935782757771   17.39229523694432

