84
CSD_code = IBUJOG | q = 1 | S = 0 | Stoichiometry = C28H50CuN2O3(1+) | MND = 5
Cu        7.82898240710390   10.78209544575723   10.95843998617264
O         6.94067097641401   11.99774967619814   12.16344277167192
O         8.23805059819835   12.46041859907819    9.93166259147553
O         6.03678366362920   10.62539435422663    9.38476719906827
N         7.23755754268253    9.06613090271975   11.98128538062660
N         9.53778792533304    9.78205314156792   10.49592444220581
C         6.86976351945833   13.16722503683474   11.66712297965954
C         7.80070029861446   13.46548042026220   10.56903306315853
C         8.06063876275268   14.83605591094309   10.25024643714159
C         7.22863976802782   15.76311443186901   10.81605377252392
H         7.34037708204268   16.79234787812300   10.52188620303363
C         6.19736062393534   15.47036619442047   11.75524191065310
C         6.00949892322610   14.17262150955797   12.15104252075953
H         5.28456956313437   13.89081221628457   12.89576688950482
C         9.10904219229799   15.19302111961320    9.20962599389074
C         8.63904196901807   14.66766112243630    7.84466712160923
H         8.51920868414726   13.58819143181113    7.87007250474905
H         9.36994613163452   14.91770528954993    7.07985021767293
H         7.68641335086249   15.11769176616320    7.57235056619852
C         9.33582047061052   16.70276100318139    9.10047832739873
H         9.60072814077523   17.12872398939488   10.06543864061888
H         8.45790076463645   17.21149056817999    8.70999746321606
H        10.15682880851761   16.89133867136228    8.41320443333772
C        10.44018851648025   14.53270549512425    9.59001362442041
H        10.33840143185141   13.45207666611148    9.60866792741356
H        10.76597148556175   14.87197099729844   10.57103519289927
H        11.20572868770163   14.79134127757056    8.86292418039994
C         5.36886382869358   16.62208404572172   12.28718352192217
C         4.64307616498883   17.28606111301220   11.10562924745231
H         4.00733745538327   16.56375455366447   10.59798643247692
H         5.33977423122810   17.69955139183440   10.38229909174803
H         4.01800403629486   18.09609896531008   11.47218570996586
C         4.31696031455266   16.16785040275546   13.30145027584547
H         3.61904874126654   15.46342413401979   12.85533186200978
H         3.74956688696517   17.03015471047428   13.64229815390940
H         4.78254991298038   15.71059561737869   14.17099053599364
C         6.29255344797558   17.64029726146811   12.97165053667647
H         6.83439144821031   17.16796113561526   13.78795097548446
H         5.70037644733760   18.45555424998373   13.37895410243140
H         7.01535890291910   18.06281310665666   12.27973118781802
C         8.04954124221619    7.99391430856747   11.36862513526516
H         7.61096330611155    7.81286530675885   10.38144740437101
C         9.49923247520472    8.46300482409210   11.17430193106324
H         9.94044294157197    8.61394615072941   12.16445425489519
C        10.31688274932653    7.37170217470490   10.47148806787128
H         9.89613680668870    7.15887406862612    9.48857444580299
H        11.34717165974933    7.70621045368119   10.34169916509531
C        10.29726777607084    6.08349142590363   11.28849152387271
H        10.88744517105610    5.32227845967143   10.77817407412610
H        10.74794796204579    6.25381090913203   12.26811237888593
C         8.86106915042009    5.60685366879251   11.45784109250113
H         8.83764096800339    4.68899263000248   12.04546019413219
H         8.42858401419488    5.38803653216421   10.47971151891796
C         8.03638376249223    6.67905690219512   12.16276088591766
H         8.45986030687962    6.84435630360140   13.15413904679546
H         7.01203174912143    6.32599985321492   12.28151162057714
C         5.80864159325725    8.81029254723596   11.82589181916104
H         5.49968977252295    7.90676772399866   12.35991948915479
H         5.56567141518978    8.70757147233780   10.77207819123727
H         5.25650170515759    9.65285458553852   12.23361371476043
C         7.52057223474561    9.30246237792533   13.39862741561627
H         7.11595011679440    8.50368859119982   14.02598434673430
H         7.05571591370284   10.24221044952604   13.69045203672501
H         8.58951674763177    9.38696179945149   13.57220610657281
C         9.51529207025903    9.69087726403237    9.03442474958764
H        10.43593032523727    9.25322948016031    8.64026352980209
H         9.41150880347337   10.69365668931811    8.62725893673044
H         8.66246860176548    9.09922502033808    8.71324623562990
C        10.71989642310651   10.53840635980051   10.91428675781348
H        11.64325810170164   10.00237613801019   10.67383756045883
H        10.68666866269824   10.72435214933886   11.98631607392935
H        10.73589406161282   11.49620345293718   10.40037967860624
C         6.33774833870154   10.96247327987402    8.02219093815155
H         6.44264228960260   10.03681483935675    7.44923869901229
H         7.28749019542714   11.50338226170083    8.01101201239101
C         5.20009820190862   11.84608449237865    7.50954555540721
H         5.55202401947930   12.58671804438487    6.79663860026021
H         4.42613215639684   11.24123054899895    7.03727428730080
C         4.67117437347509   12.46069030375170    8.80280430972590
H         5.30416487371595   13.29139186603243    9.12001803686128
H         3.64265820276234   12.80264772591489    8.72683876694595
C         4.82355899847451   11.28617275627201    9.75999792183008
H         4.89915789695053   11.57955883201384   10.80598456931431
H         3.98750775563382   10.58425917276901    9.64129294494196

