75
CSD_code = IBUMID | q = 0 | S = 0 | Stoichiometry = C29H39N4O2Ta | MND = 5
Ta       -0.62792152449865    2.29001803471775    4.30711990100309
N         0.49883083690926    4.07551748647423    5.40449610377948
N         0.11480971901128    1.49231232259676    6.05355258514042
N        -2.00568540245321    3.85241288301424    4.40811757570337
N        -1.49144279357066    0.96093064583138    3.44164537960815
O         4.23547199725812    1.27421679549788    8.45401137220651
O        -3.90366412125174    5.97160060288508    8.25832689615799
C         1.52117204581883    3.42012760338948    6.16777779546217
C         1.26294374912686    2.07065673640594    6.52184427615335
C         2.21942924108203    1.41754238957929    7.30076942702598
H         2.09844334533235    0.38530380074486    7.58529037788267
C         3.39229530276287    2.04790101493529    7.70510776796363
C         3.63917754010103    3.35939402635528    7.33062921255534
H         4.54151617786486    3.87417687053303    7.61661173688594
C         2.69034615783662    4.03067575954569    6.56926363052387
H         2.89011064954395    5.05659756150123    6.29792793308836
C        -0.40756082932023    0.31902144874990    6.72990345924715
H         0.03321958950698    0.25178662041034    7.73460273152562
C        -1.92148972105828    0.48972482605513    6.90759261745273
H        -2.13136537852225    1.42388672770287    7.42902520957171
H        -2.32301113935682   -0.33377180801442    7.49388871795337
H        -2.41148596254273    0.51194807274768    5.93562346124413
C        -0.08785908784982   -0.96268412853678    5.95384274538657
H         0.98898142754240   -1.09608092335388    5.87482150072490
H        -0.50227525726185   -0.89185622951623    4.94947926358270
H        -0.51215671526744   -1.82707029252968    6.45876311569637
C         5.45210527846255    1.83333777345881    8.87833304571224
H         5.95694502389022    1.04986338263087    9.44173147471921
H         5.29345805714856    2.69999046638914    9.52917774748023
H         6.07872654875465    2.12806625210354    8.02971052705823
C        -0.61823547744593    4.49284682120171    6.22658583769036
C        -1.90805048783841    4.43575518103643    5.64111902626942
C        -2.96613380548632    4.96998409438542    6.38096733237631
H        -3.97319564840662    4.97805021709876    5.99872360991953
C        -2.77299654712589    5.49621354992473    7.65570971837269
C        -1.50845017388392    5.50190465816493    8.22715724356718
H        -1.33179438605472    5.88719062235258    9.21751772804861
C        -0.43907065458498    5.01195045386000    7.48863201840495
H         0.55344605977448    5.03444812579010    7.91730270783865
C        -3.24312395809793    3.98578034341091    3.65991609162227
H        -3.68748905694512    4.96997913780119    3.87322006233558
C        -4.24733239901893    2.88579587926827    4.02869379854502
H        -4.44541740844144    2.88809660054584    5.09811775265472
H        -3.83681281367684    1.91724420124509    3.75062715117493
H        -5.18359285853754    3.03976084784009    3.49795231661227
C        -2.92443639602748    3.92229602672484    2.16380194679983
H        -2.20816064321732    4.69746225769883    1.89664080207259
H        -3.83176883272203    4.07239853005895    1.58408206606316
H        -2.50206485382655    2.94875647491059    1.91977991150185
C        -3.79437279870604    6.51529140076378    9.54945281303668
H        -4.80058723451946    6.82853816780589    9.82399303349986
H        -3.12869913745116    7.38477826094102    9.56619048048305
H        -3.43819501267679    5.77266899646516   10.27121991361227
C         0.94850836907462    5.22552447073442    4.62197144963839
H         1.18402632045630    6.09201757396245    5.25109808611699
H         0.14520896712787    5.51488834395295    3.94044491415032
H         1.82997681992620    4.95971490683587    4.03855829623476
C        -2.09945082426430    0.03775092508710    2.68780980973413
C        -1.87712267032351    0.00270294784634    1.29543377423084
H        -1.20197695452602    0.73335403594221    0.87356678711949
C        -2.49773986557017   -0.93342072743551    0.49999630512672
H        -2.30697127862734   -0.93669270162783   -0.56461070670021
C        -3.37018114142720   -1.87538065452087    1.03723176570163
C        -3.59854379344950   -1.84792936055866    2.40812968926830
H        -4.27386420489655   -2.57004707673781    2.84649880809301
C        -2.98381991977613   -0.92014404685413    3.22093593410244
H        -3.17692590046767   -0.91631069443367    4.28349097933916
C        -4.02432842503917   -2.90454852706135    0.16526694419420
H        -4.97632174907983   -3.22104581118774    0.58560462481933
H        -3.38560038762859   -3.78483355277994    0.07832601052082
H        -4.19328702001298   -2.51361256316155   -0.83575858296536
C         1.00877716588368    2.52829471281386    2.71990918930045
H         1.09108050883961    1.67849258618489    2.04521049242338
H         1.97452161634108    2.63694103792963    3.21667488612929
H         0.84800413735081    3.41544660347003    2.10691959242702

