65
CSD_code = IBUTAD | q = 0 | S = 0 | Stoichiometry = C26H29BrN4O4Zn | MND = 5
C         2.37262986858365    8.89292938579404    7.75526548779161
C         0.78617137244213    8.14034922151944    9.00234283175216
C         1.60525429603400    7.04741952110428    8.74774250818595
C         3.66421255891905    6.91854966962843    7.33648465943205
H         3.80684457250245    5.86213671702002    7.50416092096057
C         4.49347530776128    7.65964298909660    6.55074703894582
C         4.29174426988543    9.04468515578236    6.34965634822146
H         4.97586437128082    9.59248567711650    5.72228606401722
C         3.23104368479175    9.65682246004327    6.95169805183714
H         3.00757995341872   10.70647527510011    6.84815024374097
C        -0.47698997818301    8.25421906231586    9.70441991505913
C        -2.04226600349110    9.70812362506470   10.53382812677130
H        -2.31781961633941   10.74359521392344   10.67116008529710
C        -2.84811962766899    8.66872085454295   10.97464479976693
H        -3.77609469376539    8.87590748768109   11.48324976071347
C        -2.44128852388267    7.36482768379733   10.73021351511341
H        -3.05625971071000    6.53048619988524   11.03500529787121
C        -1.23708458411569    7.14833359418010   10.08552851889531
H        -0.88475427422193    6.15613494608027    9.85219879295901
C         2.09230476628738    5.36509570328227   10.49298786655142
C         1.73850725391684    6.38978493083592   11.56951574107980
H         2.15179048217056    7.36713484205697   11.31131559487300
H         0.65616457637615    6.49532588936145   11.63959641476668
C         3.62017458218046    5.24300315863680   10.40770361659994
H         4.05516344306614    6.21036190001597   10.14111028382719
H         3.89327634341150    4.51713818640655    9.63505803192442
C         1.50025469017354    4.00489797575177   10.86956193330384
H         0.41350409929895    4.08706105528382   10.92293777788953
H         1.74293703828053    3.27003785926930   10.09779438183751
C         4.17948811637082    4.78404423129572   11.75459128168069
H         5.26895413188417    4.69641312379140   11.67879351555478
C         2.30028894743868    5.93078599099048   12.91634682662602
H         2.03649599609763    6.67152989959597   13.67788800800099
C         2.06198146677824    3.55147791985478   12.21659173575325
H         1.63069208581454    2.57883570879405   12.47649808664890
C         3.82016663340745    5.80935893405691   12.82765461045130
H         4.22585637106062    5.49539816006324   13.79126615779189
H         4.25716630542285    6.77919555926281   12.58039463993741
C         3.58180670310805    3.42642714886388   12.12050047874537
H         3.98765083540342    3.08980383906263   13.07620343050466
H         3.84874615236924    2.68390592177844   11.36482473188273
C         1.69891967510284    4.57679190619026   13.28906864782708
H         0.61333800507155    4.66173076484525   13.37124281605521
H         2.08449387169772    4.25298654567748   14.25768052383275
C        -1.60616652118850   11.77656070329379    7.61319233678092
C         2.04277845256363   12.25661066451373    9.55544801932472
C        -2.73920996135050   12.38104745403092    6.81065908544642
H        -2.31740855346706   13.11768800317594    6.13047690940457
H        -3.44254675551389   12.87543518897121    7.47366288097218
H        -3.23150212506271   11.60921404716503    6.22647228439144
C         3.15966876801578   13.16216446301281   10.03265032344815
H         2.72623040354732   14.12863083079473   10.28014520323937
H         3.89324212874009   13.29934680771362    9.24383967894045
H         3.61959734904391   12.74707801208844   10.92432846707995
Br        5.96241297297271    6.79624315366444    5.71649511347924
N         1.28945975641840    9.24774777321899    8.40797010221683
N         2.61442592957487    7.53324862625075    7.94084693901850
N        -0.89574126556994    9.50266531596712    9.91315020396773
N         1.50850833404873    5.73969138147727    9.18511319944234
H         1.83425319161095    5.08511928350163    8.47933589133558
O        -1.32798881821886   12.25852469905475    8.73467053232174
O        -0.97049303826014   10.80613460241627    7.15138425618922
O         1.77238803028134   12.21261289460032    8.33402280623907
O         1.41551790906407   11.56362266364455   10.38383359325741
Zn        0.22670799731391   10.96544153673594    8.82849207222945

