67
CSD_code = IBUVUW | q = 0 | S = 0 | Stoichiometry = C28H20FeN18 | MND = 6
Fe        1.96787390870057    4.38279806813124   -0.00012923877850
N         1.66054137569305    3.77482814331759    1.84505123266981
N         1.09955696330736    2.06921948710976    5.96402268282292
N         2.48839670262630    3.31197454167930    3.81382349479139
N         3.75555456800237    4.77227764758903    0.73352452430780
C         2.75421116634102    3.86358127800636    2.60220904352832
C         0.44895109549137    2.27956736859865    4.81491125635675
N         2.52509742598712    2.62905268554340   -0.44420901854917
C         1.17965163359306    2.91757608000280    3.74377793460944
N         0.69659252033997    3.20874211324285    2.55057819546220
N         3.33657209869585    3.21619816361386    4.89758586673805
H         4.12496809160688    2.60781132400111    4.68568174717138
H         2.78093478910878    2.82432984960866    5.67167405406136
C         3.23173099486240   -0.45397251650837   -1.92815717077841
C        -0.88333913124432    1.90127900582400    4.62883764265034
H        -1.35535426307876    2.09449625723791    3.68037204714361
C         3.92945087457762    4.46460743772827    2.04160370509815
C        -0.86669099166340    1.07717133445454    6.87040842086188
H        -1.35034850082318    0.60663916546858    7.71109939981099
N         2.85333125779563    0.30113597032067   -0.95916956239873
C        -1.54528158629100    1.29279449432562    5.67704046619002
H        -2.57599844028756    0.98912654706469    5.57102143043686
C         2.69336845863873    1.52141267510441   -0.78744035471770
C         6.14971734060145    5.33893683741838    2.05060246019987
H         7.07365381438211    5.57203315310456    2.55654245555165
C         5.10532392707585    4.74395008820906    2.73354271236542
H         5.17866102802402    4.51948280789935    3.78550363480655
C         4.77162224830501    5.33907965122497    0.09180422310005
H         4.59642871955304    5.56199690684781   -0.94998348778680
C         0.45457280338948    1.48441176725994    6.95716325236279
H         1.03127129500038    1.34080515574777    7.86125944542957
C         5.97875138020811    5.63207624183097    0.70256647286548
H         6.77155633758906    6.09105095100475    0.13400108633431
N         3.55131881206227   -1.22194044529314   -2.72781744975749
N         2.27515197459389    4.99104663607773   -1.84521822262461
N         2.83608027102760    6.69658194998548   -5.96419594135254
N         1.44734800556712    5.45382782446196   -3.81403205767379
N         0.18000361640946    3.99370639629608   -0.73371595852848
C         1.18151375410185    4.90224595417119   -2.60241017407372
C         3.48676032014294    6.48625632910161   -4.81512205579002
N         1.41016811612916    6.13620406703851    0.44381049185497
C         2.75608143799273    5.84826136358511   -3.74396237357195
N         3.23910934988388    5.55713511493340   -2.55074096843178
N         0.59914827874406    5.54961208432865   -4.89777424588869
H        -0.18921572920727    6.15803341960780   -4.68585871200500
H         1.15477804473759    5.94144344845494   -5.67188383610623
C         0.70359270995322    9.21814061342335    1.93054548568356
C         4.81905670311007    6.86457326266237   -4.62915239927612
H         5.29116748645703    6.67136369467852   -3.68072998988163
C         0.00624815570696    4.30122338083706   -2.04184767420108
C         4.80225831791540    7.68858205170007   -6.87076589062426
H         5.28585287217740    8.15909364287984   -7.71150546350665
N         1.08138663296526    8.46353815398568    0.96096294494584
C         5.48091532335086    7.47303557698146   -5.67742411452145
H         6.51165887185707    7.77665143846589   -5.57151866816501
C         1.24138809215655    7.24339804347186    0.78834286634880
C        -2.21400646135462    3.42688764166959   -2.05095734146894
H        -3.13797176392577    3.19392760650968   -2.55691517061587
C        -1.16957089231502    4.02184020101463   -2.73386428066596
H        -1.24287935103249    4.24635110716469   -3.78581579530039
C        -0.83608191576699    3.42692034028575   -0.09203226611804
H        -0.66084191641714    3.20379630988124    0.94969694665117
C         3.48099009392421    7.28133462344645   -6.95741208163429
H         2.90419507588681    7.42497396604031   -7.86144428032163
C        -2.04314519347798    3.13381972807429   -0.70289177186429
H        -2.83597471298150    2.67483394423400   -0.13437726390337
N         0.38398571351792    9.98532984782988    2.73090765767258

