89
CSD_code = IBUVEG | q = 0 | S = 0 | Stoichiometry = C28H54N2NiO4 | MND = 6
Ni        7.45962829370968    2.09642315828562   11.98178340061307
N         6.31263850333395    0.91031661495325   10.26080755424441
N         5.47512867034589    3.38154661233418   11.64991580100759
O         6.62537647512731    1.09715187772419   13.24581812494434
O         9.06555492542940    0.71631831668116   11.98074353863525
O         8.15413960282546    3.40672692457318   13.49106713375378
O         8.32731496485272    3.09542681163748   10.73963337572984
C         5.28213019790356    1.80785631191266    9.74339301689572
H         5.76443530197110    2.53539168070884    9.08870801378924
H         4.53798632679773    1.25220856980231    9.14632106590904
C         4.55868928949454    2.55568699610793   10.86667794410856
H         4.10029325463877    1.82757381161375   11.53765521629509
H         3.75238528144191    3.16838373428466   10.42710042259789
C         5.71951294257544   -0.32689051788114   10.75164729376284
H         6.50279464282213   -0.96431704177406   11.15696754319713
H         5.20199465131984   -0.86822291369397    9.94281902790134
H         5.01001401123750   -0.11988726417523   11.54754111231897
C         7.27191427082462    0.57730290437556    9.21475592536807
H         8.04980658117327   -0.05533440126163    9.63686910591715
H         7.73987029118304    1.48523557022368    8.84384329578742
H         6.79015371294709    0.04886621785646    8.37686412103607
C         4.90040149767332    3.68746228533420   12.95419734007022
H         5.61958314968328    4.26590249061876   13.53017762063650
H         4.70067137324555    2.76462909817806   13.49222733317093
H         3.96550216125256    4.26243951967504   12.86027587943941
C         5.75217688108145    4.63651188166159   10.96311975162115
H         6.46225970843304    5.21712612397521   11.54865697045205
H         4.83192899772642    5.22841006318572   10.82926107154462
H         6.19458311622723    4.44778377596215    9.98924359375910
C         7.10778642450654    0.23745600304514   14.03343127148038
C         8.35347438259312   -0.37811672548607   13.93901267397404
H         8.63637235585995   -1.08490761722218   14.69304840065876
C         9.26519012802552   -0.09617697153448   12.90958740557488
C         6.18082417692550   -0.09752660256164   15.22583654736908
C         6.58729408040409   -1.33766484289387   16.02012048500260
H         5.82582662539364   -1.54518774030997   16.77044496841585
H         7.53065140913344   -1.18822142703517   16.53867982692751
H         6.67162048372529   -2.20720276418697   15.37231684754009
C         6.22025342568637    1.13399614390354   16.13976747641525
H         5.51613050581315    1.02186542193568   16.96250103138740
H         5.96753935413049    2.02676316641547   15.57358541004678
H         7.21902299293844    1.26427598295142   16.55104285467696
C         4.75887883020458   -0.30464133214341   14.69277427364852
H         4.05846317467939   -0.42300331145651   15.51720923958868
H         4.71579624017949   -1.19635261317117   14.06978029186686
H         4.45253693079305    0.55009446750736   14.09611578177564
C        10.64829216391405   -0.78007793716745   12.89794239009993
C        10.98082228941947   -1.15689654847920   11.45019950818952
H        12.01109763251655   -1.49805907929061   11.37165743340204
H        10.84472714284880   -0.29306309595487   10.80488259170083
H        10.32391714166113   -1.95417496911410   11.10649201482491
C        10.75430745467392   -2.02470796030915   13.77724090358177
H        11.71999364718186   -2.49998048640435   13.61106539333231
H         9.97508709228579   -2.74317068335352   13.53203743531237
H        10.68551997292297   -1.77501518317577   14.83308929746736
C        11.63553013680671    0.28798543689176   13.38767193053066
H        12.65648374452456   -0.08794394693307   13.34479259775906
H        11.41001537707834    0.57029763102887   14.41423234816553
H        11.55778229617138    1.17467935076725   12.76266299335818
C         9.11317328458338    4.19163021256188   13.32508617062670
C         9.70258439307009    4.48764092267951   12.08627859830993
H        10.53049246914366    5.16744852964386   12.06283071093018
C         9.27088725857608    3.91916888912549   10.89013756895426
C         9.67169897704332    4.82383288936498   14.61712112589761
C        10.43591601077159    3.69864240911325   15.32777694677332
H        10.80095347727538    4.03759822021648   16.29593714947821
H        11.28504017071266    3.37892738766164   14.72680592635513
H         9.77887113017121    2.84471592833827   15.47559003929831
C         8.48344503069125    5.25888350281721   15.48198166100942
H         8.82279045896169    5.57196765934200   16.46733388394486
H         7.78848900298562    4.43088478367909   15.59464399580722
H         7.95989098440525    6.09119230575972   15.01448488048570
C        10.59765310637235    6.01872503160344   14.39888019853927
H        10.85277260443732    6.45531504320088   15.36345100439849
H        10.11237587421953    6.78423038877394   13.79727017800420
H        11.52432800902446    5.72197916904552   13.91398701719115
C        10.00830246120125    4.26401105640834    9.57458733911748
C        10.83896569968959    3.02132601846590    9.22918231751080
H        11.32464036348715    3.14315257984490    8.26244827904620
H        10.20005367478805    2.14239798813226    9.19858415481123
H        11.60395123373445    2.85896194323591    9.98558637431362
C         8.96443193000206    4.51239531220208    8.48032320047849
H         9.44994895879879    4.63321616208416    7.51392004328098
H         8.39652048619331    5.41510630766247    8.69880007321623
H         8.27492713735828    3.67490691605518    8.42070695593072
C        10.92271313323511    5.48512550558487    9.65884268313534
H        11.31155886524277    5.70793132864551    8.66636040665264
H        11.77120666921881    5.30493762064279   10.31356817837012
H        10.37861045433308    6.35719700897032   10.01427971954862

