85
CSD_code = IBUVOQ | q = 0 | S = 0 | Stoichiometry = C27H51NNiO5 | MND = 6
Ni        6.01332234164925    9.80884364408808   16.34045028681766
N         6.09362865368989   12.11775840260783   15.94647073138297
O         7.78286895523000    9.67803837735681   15.97417652167192
O         5.83390147641161    7.76265534625966   16.25902495448643
O         6.34439083758985   10.11579991278999   18.45755451658790
O         4.22874219134503    9.91656081935833   16.64403493500382
O         5.57812705905129   10.07553215924447   14.00738527465917
C         6.25074677326928   12.29768076986273   14.50440239431980
H         7.26304923290011   11.98892483223245   14.23634569757313
H         6.10773660253231   13.35342886183238   14.21607013535994
C         5.29063668916453   11.42053821383394   13.70356932648500
H         4.24341526518354   11.65141896456713   13.94770649344944
H         5.43884689999912   11.60326848750937   12.62590788453461
C         4.91028207450587   12.81958024214581   16.42963368650062
H         4.98332875768555   13.90100340406523   16.23137909133653
H         4.81451617067105   12.66197892157300   17.50202191131851
H         4.01425634890152   12.43201189860380   15.95317412916948
C         7.25975931457192   12.64682732329400   16.64606085048804
H         7.37209995052403   13.72898550142732   16.47718201096021
H         8.15548048340492   12.13458955230104   16.30584440750174
H         7.14775705516707   12.45647686506761   17.71111730802923
C         4.68768874818358    9.16475263234042   13.40942282428372
H         4.75808179921477    9.21486031157547   12.31420754276550
H         3.65184799924236    9.36276797938376   13.70850300531530
H         4.97784721586979    8.17609532750610   13.75760970798208
C         8.53466148710101    8.66790922493766   15.94947712495127
C         8.14237930272147    7.33662813405205   16.09490775976705
H         8.89389325676233    6.57303800800979   16.09005851567072
C         6.80311170838517    6.96615753526111   16.25765923760058
C        10.03339379459012    9.01008574124473   15.79116678075280
C        10.47046868930606    9.60930129966830   17.13424137762997
H        11.49747244576445    9.96553931271311   17.07584906873604
H        10.40622252834407    8.85897731001499   17.91949003791091
H         9.82133445632696   10.43842460365627   17.40442155249468
C        10.17302937437048   10.05844662351566   14.68206154646323
H        11.20321326207968   10.40240494175111   14.61298377656627
H         9.53287106831146   10.91166158641295   14.88727732100585
H         9.88149111870152    9.63359160945010   13.72357868907110
C        10.92230155559931    7.81562569935256   15.44837624428158
H        11.93361812580732    8.16885759985633   15.25289068762140
H        10.56283842329448    7.30437566676702   14.55838245213778
H        10.97288057810549    7.10579529002812   16.26990905525576
C         6.41488325169566    5.49027164681937   16.47776324356039
C         7.55878601046488    4.49356035499612   16.30795274581472
H         7.17415256166296    3.48285226204675   16.43657224514583
H         8.33583735225574    4.65211329537033   17.05182157678586
H         7.99693658500389    4.56491514876022   15.31494701262316
C         5.29573797317501    5.15160718359473   15.48593607422964
H         4.89824493386502    4.15834295835043   15.68498660116043
H         5.67386892966149    5.17623566454122   14.46517264425322
H         4.49151476606872    5.87701346884721   15.57708576144052
C         5.87021840892880    5.41163666422189   17.91052670962506
H         5.47858550231598    4.41704003693773   18.11644931545435
H         5.07496314443420    6.14145540240771   18.04248143898007
H         6.65973882652618    5.63063391486176   18.62720248582206
C         5.44974873311080    9.89713119012479   19.29780172736820
C         4.08738050309484    9.69796660454266   19.00105439158740
H         3.41658924340827    9.50431172293698   19.81657597223592
C         3.57815946286335    9.71645364291810   17.70880856451064
C         2.07799657400554    9.43177332986988   17.46680672464537
C         1.20078939094632    9.54818798481272   18.71186551514250
H         0.15593770028652    9.44193922367962   18.42420647648259
H         1.32611705229528   10.51837712698489   19.18754416926974
H         1.42617603634972    8.76738361289956   19.43360500735009
C         2.01865734236102    7.99995852005668   16.91885192078606
H         1.00153618442201    7.74327791175384   16.62738588480783
H         2.35415370534068    7.29299941130561   17.67484282454448
H         2.67142290978991    7.90926257045089   16.05391832592068
C         1.56199483214723   10.41095414128199   16.40671316611843
H         0.54584796834391   10.15343866107095   16.11438356439920
H         2.19881824816921   10.37509878304228   15.52699859124318
H         1.56422715480572   11.42701188033668   16.79779814820020
C         5.86951305521464    9.83917622710181   20.78131466505810
C         7.36459769846398   10.14614858533472   20.88984706335224
H         7.69637088884519   10.05326594043293   21.92203192557674
H         7.57073138719439   11.15641476338914   20.54476084640586
H         7.93406926479649    9.45854332376744   20.27026012953995
C         5.08394869002776   10.86678672597106   21.60151756424326
H         5.43376839468438   10.86201595686781   22.63253238436146
H         4.01976035889892   10.64782617719345   21.60267264588179
H         5.22747253143569   11.86593504303359   21.19514317883174
C         5.60795250643628    8.42416253072080   21.30817052509126
H         5.94679182677138    8.34113804425184   22.33963333709930
H         6.14662970487184    7.69570795981901   20.70638861181423
H         4.54983233301108    8.17887546476990   21.27388143735252

