62
CSD_code = IBUVAF | q = 0 | S = 0 | Stoichiometry = C26H26BrCuN4O4 | MND = 6
C         6.75999927332595    5.20247687876614    6.18899744635622
C         7.55438287416970    5.85493844403517    5.25698115445711
C         9.10786214933631    7.77822040274996    5.57806376739262
H         9.41164677152991    7.79946967979110    4.54283276582930
C         9.60313956099554    8.63784873703674    6.50939865218924
C         9.20661390639100    8.57597142876189    7.86491011544028
H         9.62904023224028    9.27112138548355    8.57210665684456
C         8.30297333314153    7.62973459619473    8.25003548827975
H         7.96877097703915    7.52181523247479    9.26830650633435
C         7.79541740411379    6.74070018064322    7.29165838098921
C         5.83347469964055    4.09253829318854    6.05642460442901
C         4.77069731848319    2.38186617877704    7.15271912461319
H         4.64980138711862    1.85004321233249    8.08603394267355
C         4.07172687432616    2.01718405969101    6.01295825716783
H         3.38534389252671    1.18598236659322    6.03552156385153
C         4.27221118000498    2.74934310252732    4.85049076907705
H         3.73369952514634    2.50234804337421    3.94723782855911
C         5.16698054526896    3.80332320291516    4.86613540781308
H         5.34770721724376    4.41244957209976    3.99488125172248
C         8.63188568087361    4.59511972213442    3.41240261795873
C        10.09375057691960    5.01193901388951    3.61320863181709
H        10.30090213287635    5.12392878403724    4.67956718616980
H        10.28105810622217    5.97018798113632    3.11710994840167
C         8.35041559224724    4.43128786145221    1.91655436610895
H         8.50849991136468    5.38384831655811    1.40380547219814
H         7.30707461882509    4.14381092995316    1.77513984435600
C         8.39719441764438    3.26561915466651    4.12187099326351
H         7.35600718460103    2.96183219103056    4.01345258028500
H         8.62076291271372    3.36364168327309    5.19505619641773
C        11.01685199044296    3.94614995091793    3.02246055436409
H        12.05724328326678    4.25617029382580    3.16633661792608
C         9.27751305511252    3.36678252686616    1.33127593493868
H         9.06908419340531    3.25930116284608    0.26096580710743
C         9.32001155209388    2.19976065033585    3.53053130010433
H         9.13738868560629    1.25356933642031    4.04847912586326
C        10.73189803058201    3.79153366117926    1.52898622821456
H        10.91864352513426    4.73518892084647    1.01047852389990
H        11.39804730640783    3.03967560861528    1.10187470296464
C         9.03079138791320    2.03618470606742    2.03898103825009
H         9.67976921476241    1.26607907335095    1.61783541218088
H         7.99546602496820    1.72136740717673    1.89011131779628
C        10.77393255650222    2.61806616701648    3.73468199978839
H        10.97066303234774    2.72426469907007    4.80174756740084
H        11.44221789653504    1.85377887449988    3.33394483737284
C         4.68399956836153    4.66582707369307   10.53065817790396
C         8.92347951483361    3.74377814051207    8.09148882824146
C         3.57501730349118    4.76218272629127   11.54242290489817
H         3.98809249293092    4.71954424060439   12.54604083463779
H         2.90602928567591    3.91412839495430   11.40591610146597
H         3.01399199697627    5.68007550502559   11.39240544736136
C         9.66124172377589    3.46048377034602    6.96886542005156
N         6.92786643079099    5.75790079074272    7.41979247230630
N         8.20763847000503    6.84053060318035    5.96620394508467
N         5.62592794165198    3.38905779144013    7.17227343209149
N         7.70100346700923    5.63959860933211    3.90197864012280
O         5.71145012128964    3.98548748272645   10.78145626258118
O         4.59637587731605    5.24728030343946    9.42243722903662
O         9.68790336285880    4.77981374243679    7.48846223435005
O         8.20332446163993    3.69908198542296    9.05941910884981
Cu        6.40688496768627    4.44655405936030    8.94630274892795
Br       10.86165004814397    9.94414803013033    5.96425326912779
H         7.90926097420740    6.50776307596037    3.41597045369265

