111
CSD_code = ICACIY | q = 0 | S = 0 | Stoichiometry = C56H42F6NiO4P2 | MND = 6
Ni        3.08661452796779    7.57164685976953    5.21075420632157
P         1.47785387039224    8.85998087311434    6.25814373727308
O         3.36224198633737    6.13590404109783    6.90865221480531
O         4.39003332450197    8.58298517551862    5.97374875446280
C         2.22970717818268   10.33745673686414    7.00600258332715
C         2.16914361980684   10.61855852580747    8.36559628595166
H         1.60406257340663    9.97809838038302    9.02773289850470
C         2.83958149325285   11.71781130180731    8.87454694166674
H         2.78511362302155   11.93398072313737    9.93165844955646
C         3.58097436497403   12.53438463804157    8.03793066989044
H         4.10122072461447   13.39100978688956    8.44015008640115
C         3.67347412247284   12.23762571443219    6.68735026706855
H         4.27235731920422   12.85895403644244    6.03800316489428
C         3.01514228807228   11.13677914945524    6.17402403077296
H         3.12678519277465   10.86428624083571    5.13337403273621
C         0.21415737956471    9.51022026841528    5.11100908391606
C         0.21461442445593   10.79756232438423    4.58910585284322
H         0.95271392066244   11.51580511650048    4.91238026397588
C        -0.73597076983700   11.16627277237560    3.65294257989236
H        -0.72566484219075   12.16781215276043    3.24919874377273
C        -1.68883554700205   10.25810224134448    3.22491624896040
H        -2.41726270243327   10.54760619115605    2.48296573406880
C        -1.70299975511235    8.97674909596016    3.75165739213488
H        -2.44607178966930    8.26299342888604    3.42701883421082
C        -0.75858601388185    8.60560737243483    4.68848898562210
H        -0.77098474498699    7.60650060723260    5.10253209452772
C         0.36197946335166    8.19587104922731    7.53916005277632
C         0.46230174704350    6.86265124540330    7.91595608020485
H         1.21878045247453    6.24053678682784    7.45804567986700
C        -0.40212095086286    6.34229717287868    8.86453747949273
H        -0.31656684008133    5.30696881651672    9.15969130029409
C        -1.37206627977090    7.14951744425141    9.43345454791689
H        -2.04493896592419    6.74611865727214   10.17585666053999
C        -1.48666663443326    8.47653926784444    9.04639514783318
H        -2.25048601887312    9.10295831092713    9.48394468069708
C        -0.62749265867902    9.00016254812837    8.09921033685261
H        -0.71958766182402   10.03165074985453    7.78696652572332
C         4.11935540137315    5.42152290480164    9.04657251938584
C         4.08894136502075    6.42989410391454    7.87347299533987
C         4.87515444590957    7.55819329843931    8.06528244245947
H         5.46057386743609    7.63304229108621    8.96458439782121
C         4.96705393745246    8.56995607051365    7.09259474527377
C         5.83227873994768    9.74487714501396    7.37299227267367
C         6.01209042576307   10.23974936492004    8.66087269094082
H         5.51985173295880    9.76714361769938    9.49636484552174
C         6.79080565775541   11.36326886656291    8.86922903137496
H         6.91971109794913   11.74632027963695    9.87078783513110
C         7.40085689020366   12.00003163877309    7.80116256789652
H         8.01165043100460   12.87456072015353    7.97043440470402
C         7.21831538497900   11.51795309688966    6.51530152213012
H         7.68609876974511   12.01615147619719    5.67894697153330
C         6.43124969690462   10.40338229566479    6.30096261154952
H         6.26834968741109   10.02850211550836    5.30151949225356
F         3.48888125959513    4.27987287990748    8.75540330755973
F         3.52525436805543    5.91997626809825   10.15018799928071
F         5.36969934562318    5.09012164440481    9.41775832203594
P         4.69539240687250    6.28336225958219    4.16332705293919
C         3.94357320211574    4.80590691479256    3.41539318244071
C         4.00416208381848    4.52486646680306    2.05578761754812
H         4.56923605302593    5.16537013931406    1.39368718726913
C         3.33375692796540    3.42562051579722    1.54677912927307
H         3.38824354044272    3.20949997280017    0.48965853138981
C         2.59237333592998    2.60899176492168    2.38334963295073
H         2.07215483409679    1.75237050426290    1.98108582947195
C         2.49984622641711    2.90568990924772    3.73394159903057
H         1.90096851739251    2.28431851326623    4.38325256084569
C         3.15814343219671    4.00653067828291    4.24732528394600
H         3.04647813754404    4.27897517625447    5.28798572258361
C         5.95908933495011    5.63309071887852    5.31044385774728
C         5.95863849546001    4.34573200819205    5.83230637843354
H         5.22054437555507    3.62749477720863    5.50900722812104
C         6.90922446394783    3.97699673276869    6.76845930401770
H         6.89892368262657    2.97544413829294    7.17217064770331
C         7.86208306243774    4.88515877246360    7.19651716564036
H         8.59051023287316    4.59563531625738    7.93846000551070
C         7.87624067360183    6.16652907003233    6.66981742244801
H         8.61930689502565    6.88027924079905    6.99448122692137
C         6.93182725447014    6.53769503515546    5.73299536715083
H         6.94422122712418    7.53681540762687    5.31898520443537
C         5.81126982353515    6.94754977251306    2.88235338975711
C         5.71093209551005    8.28078696492517    2.50562298361142
H         4.95443780747435    8.90286668119084    2.96355443684137
C         6.57535929436416    8.80120253821074    1.55707970886655
H         6.48978943218049    9.83654362358479    1.26197468928005
C         7.54532559379148    7.99402657122565    0.98813580269452
H         8.21819927912843    8.39747233488431    0.24576020684442
C         7.65994162937291    6.66698718513462    1.37513019342521
H         8.42377717325281    6.04060236736905    0.93755994921448
C         6.80076275217447    6.14330230601287    2.32227657574071
H         6.89287244623825    5.11180057811428    2.63447175707882
O         2.81096285435644    9.00735755484290    3.51281888848553
C         2.08429251620829    8.71332863984165    2.54798774003309
C         2.05391406680415    9.72165192208970    1.37484632296353
F         2.68440327409237   10.86330498341650    1.66598162595874
F         2.64801260470726    9.22315133539112    0.27125740869719
F         0.80357511959667   10.05306512122468    1.00364023656277
C         1.29808211000825    7.58502362400767    2.35620436285887
H         0.71267771746058    7.51014268500041    1.45689551370811
C         1.20617359183198    6.57329471990898    3.32892703113987
O         1.78319479500099    6.56030266575110    4.44777282374936
C         0.34093935228229    5.39836933711931    3.04857833390987
C         0.16108968507066    4.90346211200728    1.76071688440584
H         0.65330438306685    5.37604292352478    0.92519663528687
C        -0.61762958023226    3.77993523512129    1.55241508724063
H        -0.74656329876834    3.39685529523815    0.55087089391665
C        -1.22764722680710    3.14319959199019    2.62051687874410
H        -1.83844379715131    2.26866452017720    2.45128721487618
C        -1.04506901242594    3.62531388298125    3.90635938557217
H        -1.51282720370871    3.12713859131618    4.74274169538254
C        -0.25800038726102    4.73989266166195    4.12064357281382
H        -0.09507121309684    5.11480175897465    5.12007102784595

