55
CSD_code = ICADUL | q = 0 | S = 0 | Stoichiometry = C26H24I2P2Pd | MND = 4
Pd        1.05088181104185    6.43090494511427    2.95943739835888
I         0.32750357030310    4.39117515317449    1.53143202096252
I        -1.30349072026693    7.43350560033050    3.33682118624457
P         3.14667340627670    5.68164750850854    2.85560884154271
P         1.89979493302161    8.10595161924754    4.14967123169428
C         4.28497515370831    6.78783174147663    3.83788335517915
H         5.09713733430251    6.19920491877555    4.27641344432016
H         4.71694519741204    7.50226217480988    3.12606010006324
C         3.49216511175889    7.52932422324668    4.90456366397420
H         4.05058122408639    8.37714866532823    5.31455415886026
H         3.23747858177321    6.85735036748874    5.73367161936756
C         3.13922551135520    4.13665303414621    3.81173841423739
C         2.12448461547158    4.03198040656493    4.76638216673815
H         1.37992263352838    4.83784426864111    4.87567510617951
C         2.01848591978567    2.89836946552557    5.54733506152915
H         1.22851756436517    2.81773376388772    6.27915725102088
C         2.91438800453458    1.85510317762029    5.36982008789250
H         2.82540924270695    0.96293740955711    5.97102060917829
C         3.90467505386581    1.94427738447069    4.40655912204111
H         4.58486841051442    1.11978844622671    4.25247980797621
C         4.02185443971970    3.08080295157024    3.62463684073285
H         4.77631035874592    3.13103268035467    2.85357717698400
C         4.09235814333408    5.49402553989433    1.32410816516961
C         5.44430684657465    5.15782325236413    1.32986542599902
H         5.95611858963668    4.96297216855175    2.26226060061140
C         6.13596470459238    5.08591136348316    0.13549173517095
H         7.18143133169599    4.81383124332022    0.13856079174173
C         5.49511671487729    5.36575500203397   -1.06177862457975
H         6.04195232758663    5.30269254549820   -1.99060550582688
C         4.16119095360746    5.73636584589137   -1.06651176747555
H         3.66400289055380    5.96931932190440   -1.99579245481545
C         3.46162928766966    5.80583785002450    0.12424549474700
H         2.41675135005727    6.09858703980573    0.12359267205426
C         1.09479894621275    9.00717571207942    5.49248684080860
C         0.73636323744726   10.34557826004284    5.38908476609905
H         0.97589758091750   10.90502823768274    4.49552092378907
C         0.05488175187446   10.94939655779321    6.43062508745470
H        -0.22591014736510   11.98903467443544    6.35269290371573
C        -0.28192387305251   10.22213880930029    7.55991637648176
H        -0.82254108851276   10.69721194592355    8.36451313681285
C         0.05197088811641    8.87973473406916    7.65196431637413
H        -0.23238027898134    8.30800454840920    8.52261759128640
C         0.73339689888948    8.26968474866872    6.61795613232818
H         0.96742978665451    7.21146341513279    6.66554809898986
C         2.43905774523987    9.31515872479611    2.91234188677614
C         3.29634678475676   10.36924550507883    3.21686550499724
H         3.62664468321368   10.51989875898278    4.23636125030024
C         3.71583209228600   11.22267833824562    2.21369356900062
H         4.38075982975721   12.04083620154263    2.44880559621500
C         3.28532981607214   11.03124616681549    0.90933495151506
H         3.61814687848677   11.70138775360780    0.13101526649077
C         2.42717319308432    9.98811720912620    0.60221123702089
H         2.08713448489439    9.84487566175332   -0.41241347846368
C         2.00346919832759    9.13023041106454    1.60102989991523
H         1.30631109346071    8.31302254661313    1.35839294421518

