75
CSD_code = ICAJON | q = 0 | S = 0 | Stoichiometry = C38H32ClHgN3 | MND = 5
Hg        8.52070076186537   12.36779158393146    4.06819027391192
N         7.88574732760387   13.72262892670103    2.39923318946190
N         7.19573630138302   10.91610394650707    3.27193224463951
N         8.12229695083989   11.48684086707707    6.09055519933152
C         6.91090094967187   14.41388948981332    6.82392965126301
H         6.41532328599636   13.96895233547462    7.67358633099853
C         6.17144999499364   15.15249825368083    5.92037564305021
H         5.11512710936518   15.30480738637299    6.08801316541879
C         6.76491774411111   15.65313301895075    4.77740179818504
H         6.15609167213002   16.16488280102267    4.04757357326715
C         8.12665116587961   15.47673162884136    4.55275431440451
C         8.71288599164513   15.91908686367969    3.22098655309372
C         8.11672528424637   15.00886310584013    2.17624838977816
C         7.76263290616969   15.36783608295605    0.84408080284792
H         7.84460393080249   16.34559684044166    0.41221860242951
C         7.30663274814243   14.23397456997122    0.24427213781422
H         6.93550805710396   14.12592895173397   -0.75626916337576
C         7.38170720055412   13.18473172365792    1.22206184432273
C         6.97071663485689   11.87765068328802    1.00954130221891
C         6.90143307600140   10.81758201148755    1.95004898783139
C         6.50665952530805    9.47756083637347    1.65044227171213
H         6.24088603298596    9.10413070913629    0.68078687270683
C         6.55954916363263    8.77952860234059    2.82081462989041
H         6.34531523283524    7.73909121847905    2.96914173725113
C         6.98933808579612    9.69551004187813    3.82962168775955
C         7.17173692765266    9.37224444569009    5.19889816309646
C         7.65345393015849   10.18554160468893    6.21359511858230
C         7.70256534464059    9.81955344353814    7.60134162957052
H         7.38401699539613    8.87979676020186    8.00851722951288
C         8.19461118120691   10.89409116812127    8.27752305548532
H         8.36428146365490   10.97768301028562    9.33271587618578
C         8.44553061056605   11.90515290746759    7.30675427039495
C         9.01868357699267   13.27687942837433    7.56327260847272
C         8.27446542815913   14.21778098429962    6.62799294917927
C         8.87812697984292   14.78851976453180    5.50665012873409
C         8.36792165836076   17.39139994501794    2.95089324126456
H         8.89439106379464   17.75054393951261    2.07029918842956
H         8.67574760244072   17.99500291952240    3.80216778605206
H         7.30247022224138   17.53464148959511    2.79474278224455
C        10.23978958405977   15.76180659271920    3.13631370047362
H        10.53904870331800   14.72070951619895    3.24249501533809
H        10.72584975379869   16.36138231775465    3.90302847753961
H        10.58202244102037   16.10584704450975    2.16220086013011
C         8.82000005249949   13.71064681037451    9.02305016946986
H         9.10974795059699   14.75388264450065    9.13038760506994
H         9.44236036108672   13.11415928123654    9.68533067683578
H         7.78567232248238   13.60710458431650    9.33845368024836
C        10.52909026566422   13.19851607250771    7.28988184407851
H        10.73449250695981   12.82737780697260    6.28744797679358
H        10.98550176122355   12.50874774113177    7.99726510877230
H        10.98912516874094   14.17606197619081    7.41782029212636
C         6.55011056208749   11.53741939580542   -0.36778917587511
C         5.23688134239222   11.16589333607333   -0.63972361870808
H         4.51642971555773   11.14016196489489    0.16485191355872
C         4.85451245971092   10.85165771793885   -1.93126978944764
H         3.83101892016842   10.57249452440436   -2.13426365550603
C         5.77993576720871   10.89158856310903   -2.96112494668643
H         5.48075860349858   10.63996138239352   -3.96770857216785
C         7.08989656859067   11.25484927396524   -2.69601539331528
H         7.81575212587864   11.28460841273144   -3.49512129594037
C         7.47341729295029   11.58269361735123   -1.40825501320612
H         8.49481142677336   11.86126749894503   -1.19481138736890
C         6.79317402120036    7.99447956014252    5.58298277609987
C         5.47253863082331    7.56869450089524    5.47424137499090
H         4.72205391282107    8.25838887976088    5.11630193740714
C         5.12230095610408    6.28162188393168    5.83952009253025
H         4.09325253292171    5.96320009301434    5.76003699964972
C         6.08692458160769    5.40233960991674    6.30321924298557
H         5.81254602472445    4.39598752868258    6.58248259659964
C         7.40417807257526    5.81746860412875    6.40689431904841
H         8.16030292588715    5.13428904677736    6.76448652630397
C         7.75644651638380    7.10800053530395    6.05539761911218
H         8.78321534352167    7.43477844188557    6.12877129295878
Cl       10.70075682574667   11.96736958283998    3.65329179131362
H         9.94944388039830   14.72627936621844    5.39312289137497

