90
CSD_code = ICAJUS | q = 0 | S = 0 | Stoichiometry = C44H43NSiZr | MND = 13
Zr        5.20330732368193    2.43407290307982    2.27914942289165
Si        8.34395020166644    3.29440672463624    2.94088821388099
N         3.17890469771299    2.71281879106250    1.52916894887863
C         3.10332348422823    4.78987405243232    0.25661289740801
H         2.18874815440353    4.37825687220269   -0.18527037651135
H         3.77160674955010    5.13640044331734   -0.53669346255247
C         4.66813792855332    0.29139299808395    2.73968009516171
H         4.65085784423820   -0.26872371065296    1.79184153700995
H         5.49296365571658   -0.09235598699139    3.36519831008897
C         3.83127149325973    3.74415597745606    1.10426213235379
C         2.75447233498528    5.93590263401663    1.16325784308265
C         3.73806927093019    6.82445435205253    1.58392166420820
H         4.74465633507245    6.71622379722193    1.20635325645433
C         3.43317640097023    7.84977937751359    2.45989600846083
H         4.20628388379754    8.53294124929104    2.78009738174515
C         2.13785576367103    8.00335299064228    2.92599644568775
H         1.89892430627869    8.80252507286918    3.61160679392140
C         1.14950775136162    7.13194328322413    2.50179387526272
H         0.13499428960632    7.25116966571195    2.85305049198823
C         1.45556437899892    6.10263448736206    1.62804436040524
H         0.67798601837842    5.42792110646877    1.29742314288810
C         3.38920810682475    0.09246778516814    3.43099694608900
C         3.29149981345383    0.12199602186179    4.83122184502574
H         4.19146905887351    0.24683928976072    5.42219579372848
C         2.07846834816831   -0.04185122454273    5.47036181204662
H         2.03329513115061   -0.00956911092142    6.55051618415071
C         0.92292367992221   -0.26508514769749    4.73819465103956
H        -0.02452902519376   -0.39310324934466    5.24002424315546
C         1.00545678867736   -0.35968434994747    3.35831834022535
H         0.11962989826709   -0.57449997403804    2.77784823086574
C         2.21627761381627   -0.19277887795500    2.71721855935761
H         2.27077847379641   -0.30796568994186    1.64251734028209
C         6.72502427289432    3.60052537747127    3.86084195280693
C         5.80770079397725    4.63075692795589    3.53990040372301
H         6.06851639624773    5.58555809292943    3.10362071275365
C         4.55781507132404    4.31742138247957    4.09456155926209
H         3.70204509682607    4.97747961978838    4.12906548250675
C         4.66631140201071    3.06660542586241    4.73148825855905
H         3.91419409202338    2.62426234338817    5.37027633651323
C         5.99479780105222    2.61002841414855    4.57450372949858
H         6.43253754910361    1.75183883492764    5.07491749425242
C         9.53365834627853    2.18146625091865    3.93865812154797
H         9.01541652163017    1.40252793944545    4.48745678505121
H        10.07660361524132    2.77962842672765    4.66273529313736
H        10.26459015567272    1.70927994138926    3.29130947920137
C         9.30585867502101    4.89817521574268    2.54358372654215
H        10.02515892720020    4.73249545224048    1.74847610214844
H         9.85685234472644    5.22406076335027    3.41935693014072
H         8.66012009100241    5.71489800701286    2.24399143169248
C         7.51423930016896    2.48038889985006    1.44981153749987
C         6.79997538905732    3.16923630973874    0.42013302293341
C         6.12915989772239    2.23726499272598   -0.39140517518441
H         5.61448983209933    2.47860891693931   -1.31057151613108
C         6.41106200463257    0.93870421178431    0.09342111882753
C         6.11572934906434   -0.35793109038387   -0.42586566809275
C         5.37941165485958   -0.56879764736317   -1.60313582128082
H         5.02500994520211    0.28516146123257   -2.16102031882088
C         5.11870769503565   -1.83779552890309   -2.05579033307191
H         4.54911595535923   -1.98326343232305   -2.96249253873053
C         5.59108089429437   -2.94739758852235   -1.35127227064979
H         5.37541240345026   -3.94248665704735   -1.71224761099761
C         6.33720361871832   -2.77023691650977   -0.21393118489640
H         6.71892851145684   -3.62613743956994    0.32522560814312
C         6.62550982126120   -1.48507190234134    0.27240246704938
C         7.43716315735188   -1.30198618741682    1.42866346436806
H         7.82398778922985   -2.18656453206974    1.91474200343003
C         7.75142536866880   -0.06542583725929    1.90403987745672
H         8.41102346296976    0.03895303853387    2.75400915979954
C         7.24464401309089    1.08775637478031    1.25505110587921
C         6.90994447012737    4.63368315268861    0.10021638505355
H         6.30210165366701    4.87201422859515   -0.77172413662451
H         7.94471436335412    4.88792412142715   -0.13256021591693
H         6.58717768915209    5.25848212454803    0.93389434268742
C         1.82514730997708    2.40236178573059    1.24259693365176
C         1.50467090082992    1.77687278587289    0.03128033385531
C         0.17961676102545    1.47657554567839   -0.24333388617778
H        -0.06948029249266    0.99700212285731   -1.17898913379125
C        -0.81728913168865    1.78166863718679    0.66544824819285
H        -1.84703891815146    1.55151875867111    0.43664752052642
C        -0.48735071707553    2.36044791760261    1.87770852180471
H        -1.26048167440676    2.57133490649726    2.60216208438163
C         0.82832840383720    2.66695920583344    2.18796841395040
C         2.59872494151246    1.41778228260538   -0.92938659987057
H         2.25033080712836    0.67686622956420   -1.64506228585629
H         3.45627129101581    1.01448657692040   -0.38241008916172
H         2.93457965977865    2.29598226543731   -1.48360988514984
C         1.19707100646818    3.24348996494257    3.51872891340557
H         2.00388179972943    2.65343096140394    3.95676336611231
H         0.34253039531519    3.23069335015449    4.19020832110588
H         1.54212791014799    4.27282266072046    3.41454919227603

