79
CSD_code = ICAKEE | q = 0 | S = 0 | Stoichiometry = C38H30CdClN5O4 | MND = 5
Cd        1.57314668930804    5.64818923289932   15.36796490361797
Cl        1.34162379280815    6.57107075677143   13.25249760164501
N         0.60219440215826    7.21091062865400   16.60625933497928
N         3.43207412648606    6.24897809330565   16.21600429365991
N         2.49348995087276    3.67766437531796   14.96140056701086
N         4.74321916742645   13.36932232632052   19.03958825153894
N        10.24360121579487    2.76186508070041   14.82727649404739
O         4.53711551357521   13.65030218506000   20.20098919705963
O         5.35486991643845   14.06492107555611   18.25795108065527
O        10.85895614299748    2.49199629676944   15.83652991540341
O        10.69832404159059    2.70890216665896   13.70498985230645
C         0.02264538094418    2.72896191612155   16.72061429153381
H         0.53884721727441    1.79416585576665   16.88190215200142
C        -0.42385571521485    3.45214256048319   17.81085426156707
H        -0.27828055709056    3.06485763772142   18.80883399281620
C        -1.02238418931829    4.68575906458211   17.63222758183059
H        -1.31386826700775    5.26073552391562   18.49833720075481
C        -1.23411219460492    5.18923377828566   16.35173148030231
C        -1.76891121621992    6.60362285534079   16.19494941077972
C        -0.67718143712305    7.52923019329532   16.66338292962572
C        -0.85771272939160    8.86039229183065   17.15618787514980
H        -1.79656748185306    9.35855843514432   17.29559415243979
C         0.38520394811689    9.35225372125021   17.39851215294271
H         0.64394813407505   10.32785612142815   17.76119559760365
C         1.31905143388201    8.31119016926991   17.04898346027089
C         2.69517850331270    8.42266639607873   17.12091903580555
C         3.67610742738791    7.46490620031444   16.75379760555808
C         5.08783874367010    7.64736897952292   16.91010314806027
H         5.57023415797820    8.50891788451518   17.32888334485560
C         5.68184459630976    6.51787728006548   16.43375964793621
H         6.73236824188224    6.30879256495108   16.37964511493703
C         4.62696373402052    5.65254043065262   15.99889627534745
C         4.82190507279199    4.38125998037495   15.40280739021715
C         3.86583791744693    3.49736501037782   14.93555630759649
C         4.14346697055606    2.20158287058191   14.37057387907281
H         5.11814545673232    1.77429853942618   14.23651529083665
C         2.94289835189177    1.64365295586468   14.06151785049170
H         2.76326714606085    0.68291895949587   13.62147143291780
C         1.94533868939908    2.59423139811646   14.44254082647547
C         0.45585487423212    2.45561905979645   14.26528032722608
C        -0.17389804584889    3.20741593266426   15.42786780511858
C        -0.83149439211035    4.42501623255881   15.25641290551364
C        -3.05279675196736    6.78799524676734   17.02014368823675
H        -3.75427793863634    5.99213966801096   16.78009074722689
H        -3.52342720008278    7.73882598116549   16.78530014537222
H        -2.85337935476560    6.76253022290491   18.08777237923888
C        -2.06892580860284    6.98781280776482   14.73554135610396
H        -1.16688869559494    6.96031385381590   14.12576640108816
H        -2.45831713111255    8.00325511072198   14.70419386766580
H        -2.81885748189371    6.32054981749134   14.31641300536661
C         0.01759721409114    0.98319951538282   14.27925981575914
H         0.35983528782772    0.47544882300645   13.38140450678219
H        -1.06856285237184    0.93064459737135   14.30726094553821
H         0.41027290712887    0.45313316593497   15.14244785532128
C         0.11475214928666    3.05072263558155   12.88863982003994
H         0.46725901672265    4.07774104908555   12.80161799355590
H        -0.95869731274299    3.01372570500398   12.71635781370201
H         0.60502681122259    2.46424663084356   12.11414450907812
C         3.22709647959831    9.70990508470245   17.62561266047284
C         3.04169612134919   10.07755930183592   18.95735526650545
H         2.51126594268496    9.41277400863783   19.62183004715020
C         3.91688709305919   10.56171484656968   16.76366616907282
H         4.05037551735487   10.27504987188393   15.73186570064918
C         3.54034115275763   11.27602341422974   19.42625589051327
H         3.41122143918999   11.57673090556298   20.45475890604098
C         4.41223119282031   11.76556657377656   17.22172472972150
H         4.94392072580766   12.44084172862025   16.56891684190397
C         4.22306774645010   12.11532660406578   18.55378563083316
C         6.23477196811560    3.95917357486410   15.25501921310676
C         6.99127799015216    3.63018027257207   16.37879165500581
H         6.53786566001088    3.68093219431842   17.35692522023960
C         6.81349454297499    3.89159409082968   13.98871158286109
H         6.22398922688384    4.15347343554202   13.12352767584100
C         8.30588483803168    3.23317727504130   16.24254717822333
H         8.90681062619258    2.96910692478732   17.09942408585561
C         8.13023178338413    3.50392797050612   13.84348813944153
H         8.59778037048522    3.45000238595825   12.87218929982074
C         8.86954456376961    3.17389850563739   14.97328372458315
H        -1.05276257121841    4.77094318139563   14.25855931257111

