117
CSD_code = ICAQEK | q = 0 | S = 0 | Stoichiometry = C46H65Cl2N2PRu | MND = 5
Ru       10.68829397640042    9.63009399589421   15.15513342529143
Cl       13.03582374843762    9.63689901354606   15.50257921178267
Cl        8.33512825446498    9.43796142073856   15.23473327301229
P        10.89369097229823    7.36034223642576   14.52622694502219
N        10.81932419594729   12.59875122440493   15.58632210614229
N        10.75114456859319   11.56465552016563   17.48236427147877
C        10.65721226041473   11.40416895258446   16.15872452631922
C        11.02730404926558   13.68190977491980   16.54325467677251
H        10.23177245143698   14.42864096043610   16.44617546732775
H        11.98355482736009   14.17586919125909   16.35296542749958
C        11.00152829519508   12.94984680837153   17.87976715058479
H        11.95312009567477   13.01983619350855   18.41369740357879
H        10.20826635848415   13.29933031728687   18.54886403044485
C        10.69935668228321   12.95416104571430   14.21677128767666
C         9.42506759151164   13.17540611893328   13.68273205185062
C         9.32459410660419   13.62107553511098   12.37575001392621
H         8.34586596477712   13.78604863969545   11.94891728992295
C        10.45118407839919   13.86801176137016   11.60237495177175
C        11.70171697542359   13.65884997249816   12.16158829775289
H        12.58702193353518   13.85281849386256   11.57233738243579
C        11.84953042773416   13.21155035911059   13.46724275028053
C         8.20156346594802   12.93513418941731   14.50861182194123
H         8.17901943156249   11.90155450424082   14.85277990839248
H         7.30456768911370   13.12525026569468   13.92644053072005
H         8.18808245436231   13.58137319133274   15.38604516813528
C        10.30245099392507   14.34859209249534   10.19189688778652
H        11.25722414691310   14.67269200500965    9.78585689437665
H         9.59818044474920   15.17699475897799   10.14168031375775
H         9.91566867951336   13.54293426030190    9.56836608746827
C        13.21563265646333   13.01012931178842   14.04952935666448
H        13.52863789381236   13.89349788779900   14.60791320967521
H        13.94408154909455   12.84410148402652   13.25959469772165
H        13.23164302760958   12.15485743108479   14.72346504193885
C        10.50051030127029   10.64659287234163   18.54132417258708
C        11.57391917302459   10.13482113690680   19.27599314933549
C        11.30095093922881    9.37644046712575   20.40653968702243
H        12.12725490098005    8.99912523738423   20.99350088452915
C        10.00125170439058    9.11194775301208   20.81224525033165
C         8.95531530258382    9.63370330735009   20.06623590787228
H         7.93712217967776    9.44871021230056   20.37849629911068
C         9.17968941147645   10.42309719967886   18.94737712895804
C        12.99396949976965   10.40343202668330   18.88448385033032
H        13.31544735449306   11.38063735131913   19.24766134694858
H        13.11629272783981   10.38477541433599   17.80210336548789
H        13.65385535892124    9.65578390231775   19.31879259045710
C         9.73414914488904    8.27484211948666   22.02565007615544
H         8.81362961127045    8.58445427620292   22.51539587322311
H        10.55516279093453    8.34704620317312   22.73516150888538
H         9.62786913668301    7.22793554866607   21.73914641565757
C         8.02635372707764   11.03475267585586   18.21790133207201
H         7.11302086080647   10.93481356121312   18.79848053672264
H         7.87481236217272   10.53493061596641   17.25991955288586
H         8.19802701967765   12.09059575158998   18.01449990913117
C        10.97789452557719   10.32602680083434   13.39455016096438
H        12.02795428421184   10.60008551392491   13.22293029809775
C        10.21859119368930   10.46006513419343   12.19130163265492
C        10.91529747475233   10.69810491517002   10.99030161389805
H        11.99305713251106   10.77563617270745   11.01502048565643
C        10.25257482796813   10.81209999885369    9.78768037323900
H        10.81434422757387   10.97727407839179    8.87885278054243
C         8.86931058111047   10.72113073912412    9.74182732550418
H         8.34957053342146   10.81831175126602    8.79938825410001
C         8.16027979585916   10.50494082101063   10.91376325159965
H         7.08262262894881   10.43610727101469   10.88405841396542
C         8.81783231311312   10.36945854984867   12.11793472196065
H         8.25498940134477   10.19051497347492   13.01879466545475
C        12.42242037738161    6.77318296535130   13.63543463629444
H        13.21783711100114    7.02875596254634   14.34982535281262
C        12.73736071294586    7.56073738099355   12.36497810792485
H        12.00823632515278    7.35396751878963   11.58103419894927
H        12.69780509041575    8.62748484358182   12.58998815055961
C        14.13267875427843    7.18951556138112   11.86795869026947
H        14.35812866953066    7.74386925090659   10.95435974664938
H        14.87019673875591    7.47188516908652   12.62236917097260
C        14.22484590010367    5.68985219426395   11.60099356733387
H        13.53033768835839    5.42164139787789   10.80068764339787
H        15.23239649975550    5.43090924234685   11.26871675969180
C        13.87482870522224    4.90019357682804   12.85878330654280
H        14.60707533390013    5.12031108573590   13.63937098919321
H        13.91891447582114    3.82822351993662   12.65121135638709
C        12.47794082376309    5.27409441089790   13.35248668300437
H        11.75320934178449    5.01680752855091   12.57814802421425
H        12.23759143641353    4.69803701475861   14.24857382319360
C        10.99691205528818    6.42589924343200   16.13802327852076
H        10.68840421067098    5.38761525899352   15.96393033437186
C        12.37783946664281    6.40383373759632   16.79285121847324
H        13.10894104148727    5.91999276918857   16.14342409916568
H        12.71890864500103    7.42466285209424   16.98504948391624
C        12.30488906107574    5.62568604909567   18.10493535364770
H        12.00804052526307    4.59344676846716   17.89617713860732
H        13.29309544476942    5.59972102373485   18.56942890211172
C        11.30229601366470    6.26257159835671   19.05955150448779
H        11.64460660288456    7.26556381786037   19.31670377563390
H        11.24186629674259    5.67951639625730   19.98169614854882
C         9.92417347843344    6.36058719441023   18.41432697672407
H         9.52998315622670    5.35555275743520   18.23674569738116
H         9.23398959821367    6.87907990324808   19.08296560462653
C        10.00062936984919    7.10118780733275   17.08499970117222
H        10.33299344937212    8.14456636584895   17.26332619311394
H         9.00450719807508    7.13710552999883   16.63195053168659
C         9.36900863496561    6.62641944838780   13.72105196079641
H         8.56023713291791    7.22667834434457   14.16228095547556
C         9.37692744509797    6.93239129133366   12.22311118022396
H         9.66733153925084    7.97316866892664   12.06331356971147
H        10.09682737820987    6.28791879665872   11.71427185726753
C         7.99455109737090    6.67915747349124   11.63142154213629
H         7.99887973928911    6.91419125893390   10.56473880792000
H         7.27018120056827    7.33547024102606   12.11697576007264
C         7.59959400368689    5.22222134375530   11.85067339670019
H         6.59987871104958    5.03841721790498   11.45175511609839
H         8.29677312093258    4.57256726096313   11.31484591232880
C         7.63155325291562    4.88443374892779   13.33781874848708
H         7.37098134574477    3.83361059347832   13.48648992217010
H         6.88725238235800    5.49155142810415   13.85803184809045
C         9.00908065749572    5.15859557094787   13.94562762720217
H         8.96012169043036    4.92260927539985   15.00989623764498
H         9.74636439496250    4.50110706957690   13.48227473331427

