61
CSD_code = ICAREJ | q = 0 | S = 0 | Stoichiometry = C30H25Cl2NP2Pt | MND = 4
Pt        1.08856161438022    3.27445243523047    9.15856592487000
Cl       -0.70994464606650    4.27897234211446   10.19346190856630
Cl        1.05458107892402    4.74749526397583    7.41911516315528
P         1.02735867895541    1.85832098125739   10.90998723181287
N         2.30666364555532    0.72901234746759   10.99491767554514
H         2.25309158306518    0.19926330946508   11.86420828366421
C         3.63496365341931    0.95928593537896   10.63214370407490
C         3.99082401406464    1.49741713098542    9.38390107694670
C         5.33819695718500    1.65536324431822    9.07097578363279
H         5.60524998367496    2.07844827571774    8.11323116590154
C         6.32943063586315    1.26716937984499    9.95200220996049
H         7.36780301967502    1.39217825103544    9.68711083819880
C         5.97898130110802    0.71098843109836   11.17113248610323
H         6.74208739620374    0.39744916194971   11.86713301883553
C         4.64697523212289    0.56261952727567   11.50472040738546
H         4.37547347055412    0.13665402206361   12.46148395541832
C         1.11743333494467    2.68881931206372   12.52389508864174
C         1.70640076758668    3.94733094629741   12.55411543019738
H         2.01771025198165    4.40353190459434   11.61839675105649
C         1.85667582479505    4.61069386452498   13.75714780971833
H         2.30221339970552    5.59375196138569   13.78133093691642
C         1.42439354633100    4.01425403156126   14.93133203381052
H         1.53275099169571    4.53438472652178   15.87155093763963
C         0.84726434346507    2.75456462876823   14.90426370525167
H         0.50951333123348    2.29469105671061   15.82156448995818
C         0.69561415067268    2.08569043305295   13.70282104674700
H         0.23595383800550    1.10597645496020   13.67471662185596
C        -0.37778450630420    0.72703294227815   11.03487331433319
C        -1.60247879459395    1.23625695039270   11.45921823268385
H        -1.67130688438665    2.27702035108204   11.74192655113364
C        -2.71433560258542    0.41583042578868   11.49249587070952
H        -3.66322794901591    0.81078722482662   11.82266707728007
C        -2.61376214029363   -0.90850941768350   11.09528483192404
H        -3.48473956495710   -1.54669375086596   11.11856542743938
C        -1.39893235440848   -1.41251084717920   10.66026998049149
H        -1.32150745415268   -2.44189551346586   10.34205554844564
C        -0.28117680137100   -0.59877541575962   10.62476022694683
H         0.66414613659105   -0.98694123448709   10.27374655034246
P         2.69857457963012    2.00565411965816    8.21653247812887
C         1.87507400426406    0.43586794016458    7.81991872473044
C         2.53724886474727   -0.78728307750565    7.81799086602800
H         3.59437016030666   -0.82630233805100    8.04414373359979
C         1.83540936845004   -1.94583586768959    7.53504010349904
H         2.34711915333186   -2.89745536938553    7.53679960158037
C         0.47963363968569   -1.88853376938574    7.25166985601435
H        -0.06223223092577   -2.79701959480168    7.03389925506412
C        -0.18199446992544   -0.67065577075587    7.24898058426972
H        -1.23845793409988   -0.62781248577771    7.03139190782214
C         0.51342754937443    0.48971170220354    7.53420248730206
H         0.00897091592992    1.45430902520161    7.53925920713000
C         3.56657831461219    2.51300819868166    6.71403532884754
C         3.63734477270022    1.71597343624442    5.57815971140140
H         3.19139872406570    0.73118202464731    5.57785581491113
C         4.27440183357219    2.19551392141939    4.44668227288959
H         4.32886830709945    1.57924626067970    3.56117207395720
C         4.83093777040861    3.46374476523878    4.44383951664395
H         5.31819119338398    3.83505496057429    3.55440192474148
C         4.75279364189457    4.26301059235831    5.57431904024236
H         5.17538527331865    5.25645908552698    5.56527135196164
C         4.11818157807077    3.79270613003146    6.70722952063797
H         4.02445950645245    4.41147503613478    7.58991534100762

