21
CSD_code = ICASEK | q = 0 | S = 0 | Stoichiometry = C8H7N2O2RhS | MND = 4
Rh       -0.32856551753792    3.33356678482311    7.03081468915044
S        -0.67672915008354    5.02512409738721    8.55434672221680
O         0.04913963810005    5.17838585071231    4.71192575136563
O         0.07313243931541    0.89589835126540    5.32404079027427
N        -0.64153223932156    2.48664298646108    8.85241528752006
N        -1.03978304604213    3.69651483579528   10.85629146708884
C        -0.09046115312166    4.45120008651258    5.57813813551842
C        -0.08436127985305    1.80004204259245    6.00830439714734
C        -0.80805637363356    3.63690926058582    9.56057259270759
C        -0.71778446005814    1.32886272325567    9.50232122691652
C        -0.96382146265903    1.32825483396112   10.87246902237034
C        -1.12114702317616    2.55196578302136   11.52260650372236
C        -0.53337749196885    0.06559266888201    8.72820884994747
C        -1.40176799776283    2.63970007762930   12.98309477173764
H        -1.28201297163621    0.00313648451196    7.93872688906832
H         0.44991456094888    0.06026927744007    8.25826669599669
H        -0.62395549090701   -0.80189592134106    9.37549367395905
H        -1.02932385840156    0.40068450457371   11.41683316915337
H        -0.83707501713455    1.89001808824069   13.53194881381597
H        -1.15728261626202    3.63487418966299   13.34216000577746
H        -2.46304948880535    2.46275299402678   13.15692054454523

