71
CSD_code = ICATEM | q = 0 | S = 0 | Stoichiometry = C31H31BN6OZn | MND = 4
Zn        3.49415501052156    5.66088296115320   11.40344341756826
N         2.97323665100902    7.57615157188730   11.19964739466755
N         3.22090549870910    5.74052907576296   13.38999639061814
N         5.46085411549761    5.92279070676751   11.62165575310969
N         3.70051792623709    8.39476489594613   11.97125022520022
N         3.83780462855344    6.82001829803086   13.90208030121333
N         5.75451479424112    7.02885388118469   12.31830201867920
O         2.85020267062236    4.48571750978083   10.22953495088747
B         4.64041841382774    7.80809378501980   13.03438571231426
H         5.09853884733059    8.66540631620025   13.70044774611272
C         3.43430409293268    9.67514061332501   11.65525181362991
C         2.49983986734115    9.67135778096472   10.63551711604885
H         2.05763404036888   10.52253289087271   10.15935195855241
C         2.22895197737965    8.32101291052785   10.38412298139631
C         4.07119313967321   10.84311673673453   12.31775537723214
H         3.86344962501712   10.84117548149362   13.38611089504042
H         3.68433007816774   11.76174475578342   11.88532081667873
H         5.15124865904326   10.81837725259793   12.18423358769030
C         1.28902050169948    7.73039055434306    9.44002741057731
C         1.10692146991551    8.29372596094322    8.17925480284302
H         1.67461621479944    9.16951193940550    7.89931114135481
C         0.22531536072384    7.72084539942211    7.28205332441317
H         0.09621742502487    8.15766817822601    6.30218374334175
C        -0.48521084715093    6.58512580610437    7.63452962700597
H        -1.16839397643646    6.13569201887378    6.92867436320472
C        -0.31855882137586    6.02873735830645    8.89201711936412
H        -0.87290162741893    5.14523865629254    9.17062440986084
C         0.55928912862535    6.59807526440981    9.79460196562176
H         0.68319423605056    6.16995262776609   10.77817307925077
C         3.64049965443616    6.86864273664753   15.23251902484841
C         2.87118706224373    5.77859327983611   15.58488144175393
H         2.53289050670671    5.53642387953838   16.57095666477007
C         2.62513103141754    5.08498135915943   14.39068110527698
C         4.17931143495051    7.92811377789097   16.12512988315054
H         5.26690692266781    7.94747943459062   16.08752355182537
H         3.86710024315892    7.73148342832552   17.14724888110440
H         3.81178709249766    8.90817632151139   15.82725032854798
C         1.86134748746320    3.85566505679828   14.21780045662340
C         1.54480060996664    3.36312527800801   12.95188232730366
H         1.87081047425000    3.88271497667144   12.06432219384855
C         0.81456291801674    2.19687069043658   12.81841675950474
H         0.58226544152937    1.83101832518462   11.82957101296319
C         0.38438746209527    1.50223788765328   13.93651458143148
H        -0.18732687091464    0.59211777307702   13.82825590692229
C         0.69640366390688    1.98099251855816   15.19837134180381
H         0.36958032513474    1.44385207694802   16.07717531347435
C         1.42734618624950    3.14466207639834   15.33893852476727
H         1.66934670577619    3.49816076423913   16.32933307553029
C         7.08154199096572    7.24852719471651   12.28682355612209
C         7.65745774489778    6.23968119568688   11.53675185618793
H         8.69874139591914    6.10493674423127   11.32635425523780
C         6.59590120535964    5.41537558744676   11.14307627834766
C         7.75068907964546    8.39317117100729   12.95819303798739
H         7.36931234094155    9.33915979420899   12.57816495648754
H         8.82070759514862    8.34619167896212   12.77528522514304
H         7.57496157102493    8.36570599729835   14.03198072667194
C         6.63645259201559    4.17239719874100   10.38458113312665
C         7.58085380307501    3.99236071311948    9.37605666531733
H         8.27110390599726    4.79015612089902    9.14285828407483
C         7.62029854879780    2.81027685979913    8.66105377576078
H         8.35096250121144    2.68160394250095    7.87541414655713
C         6.72199055304699    1.79492488860446    8.94622687958733
H         6.75214764070492    0.87369186600353    8.38288431555825
C         5.78676108901062    1.96389615393361    9.95407295427922
H         5.08513860889861    1.17503940920476   10.17975207170210
C         5.74391151348264    3.14238806977408   10.67476631056140
H         5.01790231148000    3.26947976199758   11.46480764034228
C         3.07900379122929    4.43480383078577    8.86196245752374
H         2.47504014847190    3.61867931241092    8.44166159021558
H         4.13305737165900    4.23141947707175    8.62023941705830
H         2.78821524451276    5.36369020202960    8.34870064720622

