85
CSD_code = ICATUC | q = 0 | S = 0 | Stoichiometry = C38H36BN7OSZn | MND = 4
Zn        2.13608642545032   11.04150233998064    2.67239949893886
N         2.68680626777951    9.08069741880226    2.49554425953503
N         3.47905542577162   11.28628145355521    4.15252039829177
N         3.40068470054655   11.51744595593432    1.18878299998126
N         4.02145070827501    8.92245103751390    2.51237241970736
N         4.72523717292002   10.91145349014081    3.83084574832559
N         4.64967951783235   11.06156449466124    1.35923631861456
N        -0.10286721666440   14.47064478053991    3.28108843500541
O         1.87918728555841   13.46169977206598    2.87247913297253
S        -0.03949711875364   11.78947574641458    2.80109843620042
B         4.98058400814254   10.12059627357849    2.53176182533244
H         6.10147951960419    9.76237336316403    2.47330136888851
C         4.32199827955317    7.61124465669958    2.57067175383899
C         3.13441673266574    6.90546492277398    2.59867211599067
H         3.01482833334869    5.84195465395276    2.62896367188170
C         2.12418383824665    7.87301614625584    2.54635864557408
C         5.70633623841049    7.07150583648671    2.60214205792989
H         6.26394275132808    7.38818642450830    1.72294499948302
H         5.67027694576753    5.98577420170462    2.62441136880197
H         6.23641223370265    7.42419728226111    3.48499943511567
C         0.68114291768065    7.67124717433587    2.54193196083758
C         0.12136359897079    6.62004538282686    3.26571977742823
H         0.76274925138569    5.96571975245133    3.83796862383415
C        -1.24717465845449    6.42837092499833    3.27158886534548
H        -1.67264688167539    5.61374549257345    3.83981576712422
C        -2.07302484406455    7.28139878108271    2.55768358209553
H        -3.14277323439842    7.13329966909925    2.56994895844881
C        -1.52342103168313    8.32206086259523    1.82780799993912
H        -2.16149606860879    8.99054341939521    1.27038930473275
C        -0.15504462452168    8.51273697683766    1.81321322728783
H         0.27418126807462    9.30976135730721    1.22504497587429
C         5.59068006854755   11.37754146626401    4.74943043773593
C         4.86675213142069   12.08842580687472    5.69012821840875
H         5.24521984358971   12.57899590348992    6.56358245305409
C         3.53320043536332   12.00138293324462    5.27559490678918
C         7.05675954547386   11.13812977647734    4.70487774578241
H         7.27210857370082   10.07148558136218    4.69057551458677
H         7.52410530512053   11.58098814112164    5.58017183927621
H         7.49287102388411   11.58176358395002    3.81142573315046
C         2.33350389660864   12.56962446420545    5.87756011046284
C         2.36507509311797   13.84308864747993    6.44122866395535
H         3.29396354640468   14.39597109041258    6.45468248114837
C         1.21200419466485   14.40540806329834    6.95601866141527
H         1.24347608760643   15.39842998244771    7.38140224156755
C         0.01773516827791   13.70473915570909    6.91612248550900
H        -0.88544477150154   14.14928556762706    7.30648004203850
C        -0.01695281712754   12.43070914944819    6.37541148570513
H        -0.94584093907135   11.88195572726852    6.33990481284975
C         1.13441000668762   11.86112536408230    5.86492102211378
H         1.10977552404917   10.85824606053383    5.46047776331575
C         5.47013593952347   11.64652355267408    0.46700832562038
C         4.71407698704693   12.52027346127023   -0.29464455442689
H         5.05211069244144   13.13648592268235   -1.10265294339948
C         3.40937239665859   12.40378728170625    0.19476425674452
C         6.92469633498414   11.36040180164127    0.36189172123915
H         7.09590351312852   10.29707207364958    0.20661095405886
H         7.44399071013102   11.65599110002837    1.27192129918867
H         7.34361718810292   11.91196955668448   -0.47535464450760
C         2.19096874881038   13.09457148626302   -0.21235759706259
C         2.20647665713944   14.46428218563428   -0.46160396821633
H         3.13763206129926   15.00798837334759   -0.38592396908458
C         1.03422743970818   15.12784371591204   -0.77288545596207
H         1.05033173249266   16.19411008604591   -0.94711514139402
C        -0.16088099982336   14.43189923210924   -0.85126663979745
H        -1.07690372477056   14.95574399127535   -1.08055724613553
C        -0.17729238587057   13.06412244568079   -0.63588746733319
H        -1.10393333575719   12.51416909651922   -0.70870626418369
C         0.99068660596882   12.39728266911401   -0.31709392683153
H         0.98217751146691   11.32803281774852   -0.16083862770114
C         0.53028697031658   13.41565974947684    3.00386161900111
C         2.47266894984567   14.73939865895924    3.01300856698059
H         3.54427168233347   14.59099281674876    2.89448085598630
H         2.24597243411041   15.15111368445724    3.99872085534839
H         2.09082881344173   15.41740440077876    2.24681281753004
C        -1.47451362316495   14.59288593399437    3.38579130551334
C        -2.35710225944885   14.05378369237265    2.45110931916610
H        -1.96358394119945   13.46406298728744    1.63787215009988
C        -3.71394056419394   14.28299244820678    2.56890404269915
H        -4.39169275813363   13.86065350402496    1.84026688691739
C        -4.21070379188135   15.04525900202157    3.61309776662170
H        -5.27351398081948   15.21726141152276    3.70317177921893
C        -3.33584780211189   15.59123328063617    4.53865965446171
H        -3.71743012657110   16.19201360487036    5.35255362103116
C        -1.97706763122256   15.37771800186706    4.42347600782609
H        -1.28426610631741   15.80015947275992    5.13560008687859

