77
CSD_code = ICATOW | q = 0 | S = 0 | Stoichiometry = C33H33BN6OS2Zn | MND = 4
Zn        8.00704369750071    5.24147167418088   11.05932300102377
N         7.86872259407049    4.32019083389187   12.83123813916573
N         6.03512318234728    5.35843170073031   10.74580977978510
N         7.98413050657098    7.05735212432309   11.96597173645943
N         6.82825394691518    4.72958477840618   13.57289523142830
N         5.33137074781810    5.68238000644506   11.84210310827628
N         7.06439148157356    7.12275136120930   12.94482371859899
S         9.60462053418100    4.70560391218888    9.45162320941760
S         9.48203159230703    2.00838404484004    8.23763895020104
O         7.86502264442738    2.96734654670283   10.07385109228946
B         6.04678627364188    5.99598411271195   13.16876177381289
H         5.26769980812611    6.29165041160831   14.00112121340172
C         6.62662637771759    3.86783044088507   14.58546259480396
C         7.57168406527865    2.86193146147133   14.48033483196587
H         7.70135414927235    2.02312550183320   15.13335059844142
C         8.34056859136359    3.19058372097975   13.35864397444143
C         5.55292860448585    4.01879407934280   15.60135158476948
H         5.62618134098723    4.98348787286683   16.09913990795705
H         5.64068318676121    3.23013247662855   16.34346027807546
H         4.57149148374119    3.95367913681623   15.13430553506731
C         9.46484534361482    2.48410803371612   12.75697648001511
C         9.45431040953466    1.09449348790183   12.66124492677983
H         8.62112603718683    0.53787781942447   13.06707403178254
C        10.48701996564305    0.43394287283941   12.02245957134843
H        10.46317127845697   -0.64264645046592   11.93534826192964
C        11.54157902154797    1.14981975638416   11.47990014304166
H        12.33661802352709    0.63282088884891   10.96452144856474
C        11.57125354187322    2.52941439139265   11.59479389265850
H        12.39063342092000    3.09171604539513   11.17344009217306
C        10.54126141044748    3.19547741913033   12.23250646560862
H        10.57056370452109    4.27221763084789   12.33306585370232
C         4.01575842435202    5.56607668431011   11.58507080869956
C         3.87503182669972    5.13970105427273   10.27607085783536
H         2.96168702127514    4.95894970411201    9.74709450917375
C         5.17792684579963    5.02534737629260    9.78081364213165
C         2.94546730034022    5.86255596075492   12.57216278998717
H         3.02995998684213    6.88593922746559   12.93219592479243
H         3.01488816779669    5.19641350422433   13.43017026527028
H         1.97374866012486    5.73208705523455   12.10394489832618
C         5.64036346373584    4.59043099565309    8.46770107742266
C         5.04601813715033    3.49935146303691    7.83820112592975
H         4.21408773621072    2.99753768904269    8.31212154696903
C         5.53799119024878    3.04110029280429    6.63010981805660
H         5.08268299481666    2.18356931771742    6.15616686466886
C         6.62147018248569    3.66723229621216    6.03595685187877
H         7.01660595399568    3.29423955757795    5.10338842285445
C         7.19919533810484    4.76979264288068    6.64257492283699
H         8.04271778829128    5.26177491819346    6.18279945001392
C         6.70914360439670    5.23314242413380    7.84909379400567
H         7.14646880951470    6.10488982815788    8.31518937058492
C         7.24357487529907    8.24884994562282   13.66029584035500
C         8.32177729684236    8.92578977288037   13.12193410289037
H         8.72223094088048    9.86526215353879   13.44319579132199
C         8.75837002891114    8.13970051012797   12.04989075196916
C         6.40326241061191    8.64182830011472   14.82113745001006
H         6.47183741743665    7.89858307376186   15.61339777661661
H         5.35875139108887    8.73033056509934   14.52901934448234
H         6.74372029990741    9.59884972581072   15.20655365131703
C         9.85723289091266    8.39232722494188   11.12662507257004
C         9.74501145510073    8.05273999855208    9.78108600965422
H         8.82256662592175    7.62537088387771    9.41706684447456
C        10.79543904051648    8.28097301422943    8.91309225665924
H        10.70154777250967    8.00282681554473    7.87457419069225
C        11.96506978590264    8.86075396709666    9.37525534851831
H        12.78707271512307    9.03647350105608    8.69731695351753
C        12.07858524759711    9.21769625736744   10.70900480412787
H        12.98890956106376    9.67317107066152   11.07116801877826
C        11.03209048812409    8.98679225409577   11.58166590109035
H        11.12693465764827    9.24928311629079   12.62531772333211
C         8.92870439780066    3.15124222747423    9.26649246017423
C         7.20422126543146    1.70626844903656   10.00909852660644
H         7.93224978696241    0.91918069280998   10.24138557890387
H         6.84717144900409    1.55267283119900    8.98318789417492
C         6.05382212319557    1.69933193461248   10.99704629650159
H         5.54076348764263    0.74325696491929   10.94431264086456
H         5.35059107560652    2.49349714829299   10.76097132595010
H         6.42378111439700    1.84847751544318   12.00793907602391

