67
CSD_code = ICATAH | q = 0 | S = 0 | Stoichiometry = C21H34BCl3N7Rh | MND = 6
Rh        1.38690323524812    1.98656744640617    6.30004273096525
Cl       -2.52770996448230   -1.23792615235568    9.70286758503606
Cl        2.21835564389953   -1.67900079770310    1.88718852385019
Cl        6.53361381702588    1.07432761557074    9.30266804484412
N         3.12329722950881    1.27397409059353    7.46804106984833
N         3.20102641676007   -0.04202557207989    7.69592718027767
N         0.75786076560942   -0.59103132855428    7.77200919566319
N         0.06497295766504    0.49798736824865    7.38961326175963
N         2.01897637383575   -0.74406524703351    5.63084735457751
N         1.78112719425090    0.46249243700981    5.08723223904878
N         0.78850713011258    3.66311510665521    7.40458627746588
C         0.02852050795830   -1.35159937220291    8.61067165426669
C        -1.19256399057478   -0.71928907791657    8.75138398768778
C        -1.13575507926994    0.43398529221288    7.95666840444299
C         0.48806560869642   -2.60852023729257    9.25214907818352
C        -2.28568335577859    1.35518649013260    7.75354546646517
C         2.20196404581383   -1.66307572138122    4.66208934220319
C         2.07575786351835   -0.99703182444296    3.45613946883377
C         1.81339402463212    0.34441155637595    3.76295610045861
C         2.47988634326004   -3.10460653913345    4.88436583373414
C         1.61703115968148    1.44878807527624    2.79016094383807
C         4.34190317915720   -0.34385274791656    8.34407870323754
C         5.01523365007547    0.85292314999600    8.52865335407950
C         4.21644424319576    1.85004400586987    7.95346249494671
C         4.75496005112933   -1.70942833865206    8.75325319542976
C         4.52200401950275    3.30089082053401    7.85836242043877
C        -0.13248844919126    2.96388931512263    5.34177639882445
C        -0.19793742037738    4.09932779303135    6.36596396688119
C         0.19138203644282    5.45194108297875    5.78004221950706
C         0.27549410281297    3.62054586176968    8.78157703684271
C         1.26320465388222    2.90772485452398    9.69905956007333
C        -0.00542174501320    5.03012887344852    9.30902544580627
B         2.11169447275704   -0.97306740229757    7.15028597638756
H         1.41552909558384   -2.44490434285530    9.79698668161863
H         0.66123890579994   -3.38379958647224    8.50807456559426
H        -0.27581487439488   -2.95131931853693    9.94543677426603
H        -2.01883079676389    2.19233717551453    7.12257917531712
H        -2.65440058552230    1.71492931895419    8.71436492256006
H        -3.09856379901469    0.80542669770098    7.27801336198639
H         3.99933703670942   -2.16955967450157    9.38696377247726
H         5.69063536082592   -1.64845249070179    9.30317379833721
H         4.89898500920954   -2.34402284567279    7.88044121877075
H         3.91106294565985    3.75064372739112    7.07977308298902
H         5.57404553592484    3.43536517462562    7.61529012831879
H         4.33235234245466    3.80189656394223    8.80745957289519
H         3.40923320462931   -3.23983176350469    5.43393524761590
H         2.56497029429169   -3.59957877535153    3.92056236787152
H         1.67591706510076   -3.56949419450717    5.45148003170759
H         2.04085332325601    2.36830186120821    3.18314611864438
H         0.55566547536039    1.60580103470632    2.60596821284153
H         2.09812781983679    1.19157642308709    1.84963525128716
H        -1.05778648164072    2.38645627689269    5.28888386745195
H         0.06574126446562    3.36183333839253    4.34630549029575
H        -1.18556621965253    4.19280965218785    6.83462217581684
H         1.56512261842267    4.32644224822955    7.40532286366198
H        -0.65567324766939    3.04984701852242    8.77111769354845
H         1.50129374276968    1.92391396915121    9.30321468232841
H         0.83138271927360    2.78557286976891   10.68933318360252
H         2.18398827202810    3.47854587017896    9.79210563249216
H        -0.75162777907139    5.54038765697579    8.70491443763069
H         0.90714292458167    5.62471255676376    9.31114014598071
H        -0.37817622920206    4.97735562103779   10.32884075404752
H         0.23647238789222    6.22286528518149    6.54796296148298
H        -0.53988080111847    5.75600774450154    5.03502976301150
H         1.16260475004620    5.37871285008722    5.29455445252005
H         2.30205139128252    2.88059518047333    5.53148257252887
H         2.36964660721027   -2.09610400021280    7.38519052258524

