101
CSD_code = ICAVAK | q = 0 | S = 0 | Stoichiometry = C41H51BN6SZn | MND = 4
Zn        3.91862112473195    5.80712905749400    8.57602032760054
S         2.62672866251222    4.22289368728279    9.58056516253597
N         4.07540003094619    7.84124706648770    8.59717216369064
N         5.92727368067129    5.63186745167388    8.91219427382740
N         4.09532226898489    5.80341440200378    6.54495933350484
N         5.10589388009729    8.27432562369974    7.85123432800449
N         6.67050672774868    6.32366088346958    8.03535516183358
N         5.14184903420637    6.50508256172916    6.08793133905440
B         6.01470674872898    7.31587906684509    7.06154835506893
H         6.83724307733132    7.92031179645808    6.47286054537667
C         5.15798996776231    9.61922120009754    7.88868815470534
C         4.11643238767602   10.06170106990823    8.68062374515862
H         3.88524020706776   11.07718042650375    8.92867855309039
C         3.45446858402766    8.90455109052664    9.11116411624276
C         6.17763510767411   10.43976516595406    7.18415686241352
H         6.00517311437029   11.49107933416210    7.39837577736836
H         6.12051052228849   10.28609166391975    6.10810871099589
H         7.18047579691770   10.17301213912775    7.51205497269848
C         2.27688281625902    8.80927929234888    9.96179910055142
C         2.02249674026671    7.67730833541836   10.73113508146262
H         2.71417276771137    6.84713216689157   10.71878635656345
C         0.89271946116900    7.60588652051524   11.52202751135740
H         0.71487570195019    6.71110373361862   12.10035420830339
C        -0.01283071069514    8.65779303350950   11.58115223483657
C         0.24796418602536    9.79141215925583   10.81862745238707
H        -0.43754236361853   10.62600718433888   10.84066499800726
C         1.37175943737774    9.86899698795264   10.02180969372735
H         1.54307770952044   10.75233400489327    9.42444877330567
C        -1.24428811880130    8.56273991822127   12.44709659119986
H        -1.22437992108055    7.59471826290936   12.95964188698023
C        -1.25413052421230    9.66449300172796   13.50891518236636
H        -0.34834305766859    9.61887773170861   14.10967800847413
H        -2.11256888578378    9.54561518156219   14.16661482878022
H        -1.31034942693156   10.64734828988576   13.04758308474371
C        -2.51151230665830    8.62155819642296   11.59123719224759
H        -2.49570830636294    7.83410784200438   10.84112540139173
H        -2.59059236112666    9.57904931494953   11.08215897572196
H        -3.39363503876467    8.49009546388833   12.21432373486062
C         7.96305356910768    5.96805600983097    8.15416866195018
C         8.04770579424716    5.00752962429286    9.14521570468364
H         8.93201394792215    4.52100212964139    9.50306490205825
C         6.73744632892539    4.83065588199996    9.60438937183827
C         9.06297654658595    6.54059465077890    7.33484685062127
H         8.91388638181734    6.31695228165229    6.27980000476191
H        10.01099737829123    6.11523514090826    7.65294203872809
H         9.10492822601926    7.62214878279150    7.44814770614653
C         6.25704304447759    3.96922086345161   10.67722880693800
C         6.79219856885892    2.69760426425552   10.86123672339175
H         7.55769232641758    2.33755596241862   10.18852864601262
C         6.33560342685948    1.89003171462842   11.88500097573204
H         6.75865423540779    0.90270780166485   12.01089100998625
C         5.34018683879036    2.32396728397958   12.75256117589469
C         4.81253515567336    3.59679268934735   12.56610077056663
H         4.03592246161485    3.96205938279864   13.22047893686701
C         5.26341947469292    4.41122731324048   11.54741267912345
H         4.85985003098307    5.40670259784179   11.43182174498792
C         4.86357699263610    1.43714348842281   13.87661270810461
H         5.43309061942010    0.50106647576268   13.83934106023182
C         5.12706549973541    2.09885432511280   15.23154061553050
H         4.85392159549179    1.42340351060630   16.03960384758139
H         4.54457241735432    3.01063559422913   15.33514077401625
H         6.18077165029769    2.35096286741711   15.33225360936187
C         3.37955498249340    1.09915153118114   13.72025575942470
H         3.04843304883931    0.47152271580781   14.54518287015034
H         3.20685913410262    0.56349147536086   12.78938501278935
H         2.77601462081860    2.00294254649883   13.70906705900464
C         5.25989329698343    6.33064484490676    4.75891953721359
C         4.24910453931147    5.47780961080786    4.35299689470774
H         4.04570695152022    5.14073035372122    3.35708003283543
C         3.52989253200104    5.17603175584933    5.51462026449451
C         6.31178890082660    6.97123674384609    3.92697659549035
H         7.30346365783149    6.66241121158427    4.25286522442870
H         6.25447924458643    8.05549613073512    4.00324084358252
H         6.17785713338940    6.68342919427662    2.88771607123248
C         2.35029404608412    4.33821780235996    5.68541766215612
C         1.33284592137049    4.72089667164565    6.55540226660339
H         1.39269234035917    5.67132581511326    7.06744047351357
C         0.24760853341712    3.89199110306051    6.76298086220969
H        -0.52162588748274    4.19604199150435    7.45769288896458
C         0.14170982330145    2.67026884891804    6.11056877063157
C         1.14491165061606    2.30848164170809    5.21743071210341
H         1.08592029646492    1.36703787504320    4.69102452905782
C         2.23372892137555    3.12963046776661    5.00297102044284
H         3.01761581724376    2.82410337321114    4.32440433989459
C        -1.02496444300278    1.75527285385985    6.38732759624202
H        -1.70034034951332    2.26781556963275    7.08118947612979
C        -0.53766432088267    0.47038642918122    7.06126963495746
H        -1.38211946226707   -0.16388741553847    7.32267502634737
H         0.01253308964537    0.70886177754221    7.96867568175366
H         0.12006798570208   -0.08749189172307    6.39889384257421
C        -1.80407582152014    1.43979901287774    5.10922135245770
H        -2.68065408327325    0.83905215910025    5.34258139370994
H        -1.18875653639576    0.88554999505107    4.40477624762871
H        -2.13226606017308    2.35932325694033    4.62906846189609
C         3.36737625799966    2.73300425627861    8.81919020114514
H         2.97636527982829    2.64935593791650    7.80379175617548
H         4.45012044871908    2.86148289420030    8.78524522541934
C         3.00809945647889    1.51007223356689    9.64017950352710
H         3.40747505509777    0.61019740530762    9.17428572318513
H         1.92711973089695    1.42079929941341    9.71994049611868
H         3.42128303336251    1.60693157496227   10.64094718427374

