75
CSD_code = ICAWIU | q = 1 | S = 0 | Stoichiometry = C35H35INNiP2(1+) | MND = 4
Ni        1.14198991209695   24.83765454653426   12.19331377153815
I         2.15642513019580   25.21061086381864   10.01368367307487
P         0.72307407349494   22.76174954784075   11.78200267471434
P         1.03146766335183   26.95455615208772   12.62213662467144
N         0.48423526036534   24.51541669395537   14.09765005979736
C        -0.02505832084161   22.17306399693472   13.38198416574965
H        -0.87042172171685   21.50813447642491   13.19518805471421
H         0.74124823100994   21.59424400196804   13.90292221029530
C        -0.46588482004965   23.38912701903441   14.19219119711911
H        -1.42563438559780   23.74481352438309   13.80335273644747
H        -0.61254771148872   23.11456441950752   15.24521710271725
C        -0.13660535254234   25.70478210308073   14.71601268438285
H        -0.24782856867212   25.54827112537189   15.79669359744438
H        -1.13818967096043   25.81594505784537   14.28561509254839
C         0.64395197889953   26.98378077522375   14.43278369024214
H         1.57098224951550   27.02426348685219   15.00597598231296
H         0.04757227375263   27.86445049197332   14.68229223462992
C         1.78467329114570   24.18183460089023   14.74485342338369
H         2.20136691623791   23.30515827470405   14.23397032948587
H         2.47115463637048   25.02111721934972   14.57901613265927
C         1.70682015751578   23.89233110907724   16.22525056493112
C         1.50113952888470   22.59513305723781   16.68340480662907
H         1.43022696299235   21.77523900780941   15.98263644771550
C         1.41334766828117   22.32867319405438   18.03841929983776
H         1.25460977492615   21.31542631099640   18.37393867260387
C         1.53673099326563   23.35542825508918   18.95837115703447
H         1.46766466861628   23.14848713708697   20.01460747360546
C         1.76829189765768   24.64632318170235   18.51608715702331
H         1.88770375262544   25.45024460259101   19.22597577740185
C         1.85558785798510   24.91101275179225   17.16077671644839
H         2.06265535384965   25.92159082504122   16.83834160451216
C        -0.53041995216417   22.48464295451472   10.50498578696305
C        -0.10389998314709   22.24712500720878    9.19911291180705
H         0.95338347947002   22.19076084603734    8.98093301380090
C        -1.03481350858234   22.09207221631227    8.18976912256054
H        -0.70168870901156   21.90293907913224    7.18148795339024
C        -2.38908295515507   22.18770276751577    8.47055786636966
H        -3.11428987720957   22.06788257840151    7.68076314980711
C        -2.81452243354910   22.44600733353585    9.76373538559854
H        -3.86885168871851   22.52750590179356    9.98221415156649
C        -1.89044661629685   22.60369500819216   10.78048159417711
H        -2.23414916981010   22.81506367177060   11.78425076892878
C         2.00602895218681   21.53081062642296   11.45380641031299
C         1.64427491076378   20.22254628776435   11.14121059281906
H         0.59979720664790   19.95815545394891   11.04819223274595
C         2.62994048869928   19.27595634239910   10.93842306596764
H         2.35525689830189   18.26222762016679   10.68998210258576
C         3.96771253999095   19.62728379326044   11.04732658931604
H         4.73184432191630   18.88392432939397   10.88102040397095
C         4.32635910370234   20.92736092492339   11.36251745707411
H         5.36716509832361   21.20033978531043   11.44162392862162
C         3.34606246848452   21.88163226686105   11.56876865461247
H         3.61888468154055   22.90469347239661   11.80034596003743
C        -0.56391720282961   27.42210663555855   11.88846765603274
C        -1.31333519206751   26.44003559073048   11.24765524129318
H        -0.91444230385355   25.42449141151472   11.15559423528577
C        -2.54764654535307   26.74792466545138   10.70716500174896
H        -3.12106358635144   25.98522248219171   10.20229567974713
C        -3.03484550326317   28.04125371445225   10.80727713023269
H        -3.99460626843427   28.28817100117730   10.38074234003478
C        -2.29113093522288   29.02269398831986   11.44589624570100
H        -2.67388420060446   30.02928184384958   11.51578735741942
C        -1.05619900898215   28.71957004031632   11.98858768150888
H        -0.46724266028163   29.48410101975083   12.47630845491136
C         2.12803309361865   28.34482815947459   12.28189681918854
C         3.01812525893541   28.84104954404469   13.23058002872193
H         3.06319051169059   28.41930609395829   14.22436679243347
C         3.85548360332410   29.89144638964425   12.90174612153732
H         4.53791071518648   30.28150448285580   13.64152167208317
C         3.82549742073170   30.43498389517413   11.62767437695468
H         4.48646574515763   31.24969850116715   11.37607419173421
C         2.95623574602641   29.92697860456406   10.67447496452989
H         2.94001926236261   30.34077811491849    9.67850943386715
C         2.11218354360856   28.88153586904412   10.99408667735749
H         1.44217356906246   28.47448187432971   10.24961767896135

