46
CSD_code = ICAZIV | q = 0 | S = 0 | Stoichiometry = C4H21B18Cl2Ta | MND = 12
Ta        2.94773205363817    2.06401701359586   11.29858067235473
Cl        0.96717403682582    2.65676999990615   12.32666415123045
Cl        3.93252391441608    3.18438964143527   13.06080633129054
C         3.64230103157119    4.40505569148061   10.07261159407444
C         2.17356010707514    4.14593294356589    9.70980551476344
C         3.74018972762393   -0.04485322276883   12.84343784026253
C         2.27217484024380   -0.30552813682785   12.47884525136348
B         4.57935668832815    3.07673107372033    9.85995459318280
B         4.66031958890735    4.43039871214191    8.68826452417025
B         3.06626526622901    5.15540290588818    8.62507593200417
B         1.91956573298788    2.60759082547820    9.20237265708237
B         3.51202058561345    1.85368586884536    9.17503668445220
B         4.56003481791967    2.77124671313699    8.09375560453647
B         3.58007999558642    4.05386673253579    7.33042949491769
B         1.94620537611937    3.95220434655328    8.01761565830092
B         2.83416178904750    2.46709223802834    7.66708647686175
B         4.63908969636789    0.38120402807868   11.54014722595111
B         4.78812214067738   -1.26363695754637   12.23562522803255
B         3.21961436764580   -1.69345723214473   12.88826153498732
B         1.98046178858424   -0.09076778571610   10.87977695352412
B         3.54785663200867    0.27022970576329   10.16090608969705
B         4.64791968132695   -1.06883811991075   10.48653284085825
B         3.72635161630652   -2.35185501534459   11.31881561812234
B         2.07536599908000   -1.74553640373912   11.56196144691803
B         2.92286411294679   -1.37545538289055   10.05827585803851
H         3.83136632856846    5.10252461592255   10.88605110150651
H         1.42322046635028    4.67849810246781   10.29053804909973
H         3.93364062494045    0.38353832522224   13.82484998161648
H         1.52677031574681   -0.04418564384637   13.22712140969339
H         5.58169064605670    2.97173040633210   10.47030058897406
H         5.61441683645169    5.11268445025682    8.68617408723589
H         2.85989806273517    6.30978697483338    8.63610184779354
H         0.84379814629512    2.13649772139387    9.29765306607372
H         3.78477583887655    0.62198937048437    8.95193341604391
H         5.45819236748896    2.25209272961420    7.53916560528899
H         3.77948292390367    4.44705702992934    6.24290890583142
H         0.93406575727459    4.28808158680174    7.52914691782328
H         2.50602753386751    1.73205531953800    6.80924788705702
H         5.62459343576304    1.00774814225456   11.69645192098780
H         5.76323613871125   -1.53444455330332   12.82864851827350
H         3.05005378806444   -2.19930851316467   13.93265798942076
H         0.88852676701245    0.16710706848711   10.51995133710879
H         5.54089370811568   -1.30720217795106    9.75891104330347
H         3.96186477829121   -3.49389252861722   11.18743108402325
H         1.08518239715089   -2.36551020337076   11.66688894563041
H         2.59029155125929   -1.83183840655023    9.02632052023570

