73
CSD_code = ICAZUK | q = 0 | S = 0 | Stoichiometry = C30H33CoN6O3 | MND = 6
Co       11.91294031658527   10.68905674992698   16.32654179028362
O        13.66425980794618   11.36144883765504   16.33250865643157
C        14.08789852159128   12.03611414123723   15.32396076353367
C        14.97816944817857   13.11635217088066   15.53766126070253
H        15.27618911712251   13.31465638749009   16.55638251661964
C        15.41783635955616   13.90346524635116   14.50489373112905
H        16.07860389744967   14.73550754532692   14.70617003877628
C        14.99460634927630   13.66037353126339   13.20044171280153
H        15.30238795718101   14.31102793224121   12.39555254038306
C        14.17952560366217   12.57910938925292   12.94870327658712
H        13.83716249558261   12.41164687893046   11.93452541379739
C        13.74844514595371   11.73561092954832   13.97408821154507
C        13.00755169161807   10.51246223309709   13.69357297955367
N        13.25679721053015    9.94938502145210   12.48343664726510
H        13.92778383203372   10.41459607024112   11.89567747924546
C        12.49749271252675    8.87245533050847   11.89478692113895
H        13.11896613825425    7.96763298721275   11.84024487154839
H        12.21066821136226    9.14674082970828   10.87263926962800
C        11.26815773044060    8.61706299501724   12.75263617394558
H        10.81303985824459    7.66069305770907   12.49661430674302
H        10.53679587317358    9.41311451261121   12.60010927027393
C        11.72118508850170    8.63529772820949   14.21105726094223
H        10.90027943660219    8.38675554729879   14.87913042392300
H        12.51413385429806    7.89373731503719   14.36484001018074
N        12.23129712128802    9.94663244157314   14.56939797313508
O        12.49602113636015    9.06010008931293   17.05687786347220
C        13.39317218077554    9.03706304684413   17.97915226433454
C        14.26575841875059    7.92388144028635   18.04807017081707
H        14.12073914488914    7.14128159216639   17.31813357570342
C        15.27889717776616    7.85219873322700   18.96772950865456
H        15.94118903150182    6.99764568720891   18.97764028839513
C        15.47973438527691    8.89462319406164   19.86768483107825
H        16.30825142042767    8.86792266133241   20.55939095175352
C        14.61255132266776    9.96426770391253   19.86491570212469
H        14.81215297042383   10.77431088747573   20.55553847775450
C        13.53689686524929   10.04457616138041   18.97541436410184
C        12.55253266541280   11.12185536046731   19.07097210623294
N        12.47109416590025   11.72340617567463   20.28665732748297
H        13.10341863786669   11.41109994089701   21.00206673389549
C        11.55851390800913   12.78962744213046   20.61116496061536
H        12.02051253242196   13.76932989254913   20.42648381766453
H        11.30512108760743   12.72717339387748   21.67411395485640
C        10.32562274642938   12.62239597214642   19.73659992221019
H         9.64776902673042   13.46797481517230   19.84944074225874
H         9.80149549278190   11.70770768735670   20.02277147311564
C        10.80368756447483   12.51136994473626   18.29171292889910
H         9.95723057820047   12.35002727376003   17.62342974303747
H        11.28485370574097   13.44417468804500   17.97870239256924
N        11.74612007335445   11.42287997280184   18.09690696852242
O        11.34694997458180   12.31491770598975   15.51105715330081
C        10.56067068636741   12.28163058891393   14.49800519369211
C        10.72933875693603   13.22515343333642   13.45331768637373
H        11.52295934711836   13.94734977969555   13.57116563714208
C         9.95808325623418   13.19316134996043   12.32164300983449
H        10.13290426666950   13.90866619075183   11.53019462356454
C         8.96615724670440   12.22615610307276   12.16939246252307
H         8.38613461972093   12.17548127761258   11.26005248223985
C         8.73048465839985   11.33605000522391   13.19360703715498
H         7.96893392761213   10.57792962748431   13.05437564550922
C         9.48251343994298   11.35703387423872   14.37157297279819
C         9.16037223137942   10.47104795180229   15.48775740465894
N         7.85826175135608   10.07835958140599   15.55216729561778
H         7.22138957888126   10.51780206120147   14.91002111113321
C         7.29215027928599    9.31971565403912   16.64190729065284
H         7.23920931402017    8.25565056593467   16.37292165594615
H         6.27380534082978    9.67114799289564   16.83295336523042
C         8.17806554352281    9.50396459780447   17.86541586526417
H         7.88080892171532    8.82569523143266   18.66419775555235
H         8.09419862552004   10.53161596650298   18.22476316171361
C         9.61746819062424    9.22944413260225   17.43865638500423
H        10.30007867163522    9.36453426574906   18.27718418867150
H         9.71512987757660    8.18873808071218   17.10786227302722
N        10.04922147538561   10.10482441503163   16.36126377373431

