84
CSD_code = ICCTMO | q = 0 | S = 0 | Stoichiometry = C43H35MoNO2P2 | MND = 9
C         5.64726891769277    3.61700451545426   -0.54030619105067
C         7.34624255587322    6.94038812614343    3.14266301180787
C         7.39986763836549    6.89693994217741    1.75823581934687
C         6.56466644505334    6.04750747894360    1.05762851455621
C         3.44472200258835    5.33801805033421   -0.00804572698116
C         3.54586021502838    6.71458897418064    0.16384382319124
C         2.64075944226913    7.56474726965042   -0.44907225654551
C         1.62642788088870    7.05490921406306   -1.24031523190279
C         1.50888541534449    5.68399328554025   -1.40548957403980
C         2.40312650563489    4.83198391646974   -0.78472379344595
C         4.96133757396896   -0.37889551180303    3.61188159186153
C         5.20852231356321    3.51801717773883   -1.85684724770305
C         5.74129468227372   -1.53040632597153    3.57692506389634
C         6.48636907789925   -1.89608169356600    4.68376257983123
C         6.46204356386642   -1.12020610904666    5.83049612207716
C         5.68645529607295    0.02651101320595    5.87153109727784
C         4.94023038521556    0.39369593963438    4.76783571786244
C         2.46030273475874   -0.91563339365403    2.40090739692024
C         2.16071142007255   -1.58846805156348    3.57944483545877
C         0.97583861233618   -2.29747946157904    3.69023424016874
C         0.08650804872838   -2.33959721248944    2.63041788489970
C         0.38059181124814   -1.66866876897365    1.45224378945836
C         6.05672458379781    3.03969105028955   -2.83972512277974
C         1.55745577828379   -0.95443471222115    1.33946779772485
C         4.78521002813210   -0.71182011968123    0.82584646619569
C         4.45972745320325   -2.00127988402258    0.41294518643259
C         5.14909035124891   -2.58713988738329   -0.63426730945931
C         6.16759441254538   -1.89912541033277   -1.27174819859744
C         6.50277969553345   -0.62088116917135   -0.85542963691784
C         5.81659339247211   -0.02997629988638    0.18848174904233
C         2.54331558889870    3.29097339230988    4.00758681663881
C         1.90728893410291    2.06741044123636    3.74220927227369
C         1.15956671131449    2.20164520036056    2.53823751954288
C         7.34947716193900    2.65926538568159   -2.52389224271338
C         1.35547657572894    3.51719669712680    2.05873828513703
C         2.22794466353350    4.18176714753006    2.96643405769551
C         3.31660998569123    1.76549471695775    0.15101554706464
C         6.41901675020805    2.29577632155424    3.00703213201280
C         7.79603941283041    2.76169697666552   -1.21600804817208
C         6.95226407010929    3.23395713609250   -0.22831945623550
C         5.66443354486958    5.22974251216302    1.73941448518353
C         5.60894832658090    5.28854904664147    3.12475016982611
C         6.44872910339824    6.13683759160813    3.82451913875246
H         8.00626391919841    7.59860949664876    3.68819176895708
H         8.09762752282407    7.52527391746145    1.22368078277143
H         6.60669790076623    6.01102556994191   -0.02336677110889
H         4.32889600773016    7.13064377520832    0.78152487225801
H         2.73001205827905    8.63190743422715   -0.30506056346376
H         0.92452947992337    7.72155989180991   -1.71922909750461
H         0.71280219249346    5.27819804700939   -2.01314030419505
H         2.29127176603743    3.76150648390794   -0.88910987121420
H         4.20801492746869    3.82460824686710   -2.12168789535313
H         5.77017219302264   -2.13616388358726    2.68213387081684
H         7.09410050667426   -2.78867382776768    4.64805671310627
H         7.05216828396920   -1.40478590698904    6.68908466117764
H         5.67051883103226    0.63756355958494    6.76240740455941
H         4.34351138856086    1.29530897005302    4.79152944791758
H         2.85557074069244   -1.56185456788290    4.40844892105988
H         0.74791517463757   -2.81952136060347    4.60845341689720
H        -0.83585119853618   -2.89426755755825    2.72072768680466
H        -0.31214876562960   -1.70201940321559    0.62383315146274
H         5.70469025739639    2.96613638414718   -3.85828540843724
H         1.79731078972657   -0.42548194457789    0.42635740550278
H         3.66639549554997   -2.54728883119065    0.90499777289568
H         4.88677185673155   -3.58555939445527   -0.95378866123923
H         6.69831725033738   -2.35909823227087   -2.09245612188492
H         7.29536654477537   -0.07768344584157   -1.34834382035460
H         6.06755806000964    0.97084061048842    0.51516576421908
H         3.10251321887862    3.53284405552333    4.90177194205584
H         1.83890187362045    1.22654434620819    4.42307485503460
H         0.40869976674044    1.50396196074893    2.19025028482743
H         8.00905433492599    2.28860430357741   -3.29519424344201
H         0.77818858114194    4.00222003910218    1.28260058334488
H         2.45001520835330    5.24353662092753    2.95033605994622
H         8.80581906194482    2.47294103165539   -0.96170159873485
H         7.30526181901859    3.31269024575857    0.79084205378132
H         4.91699215253664    4.65038232762656    3.65545059174835
H         6.40758940782983    6.16714702531614    4.90359958556733
Mo        3.33787882079735    2.42011810907614    1.93940726906756
N         5.42896927801127    2.31655381673784    2.36661842680247
O         3.22446582439783    1.36586049996840   -0.93560792375012
O         7.44459993317227    2.28495271851297    3.58300908796889
P         4.54551886177601    4.13148320257696    0.81240710177705
P         3.93272960993572    0.13136115681056    2.19507072296713

