113
CSD_code = ICEBID | q = 0 | S = 0 | Stoichiometry = C50H56N2O4Pd | MND = 4
Pd       -2.45418012387718   -0.61352059296887  -13.43990778014245
O        -2.66547042425798    1.47175502575165  -13.33957568450730
O        -4.75012858559380    0.85520581200061  -12.99295591689078
O        -2.04997564574615   -2.65453340674442  -13.52220991142798
O        -4.24032079416639   -2.63410368519669  -13.75647646129168
N        -2.68293979193327   -0.59570665706500  -15.39221674788443
N        -2.44592682186921   -0.77502281539172  -11.48589763633738
C        -3.92911008797269   -0.31368572039506  -15.76808921121914
H        -4.63157643811367   -0.04202530404682  -14.98279875051761
C        -3.88682068935130    1.72636494821185  -13.09328225489168
C        -4.35502542934889   -0.37614225395388  -17.08788156507520
C        -4.24055459957683    3.19766091962572  -12.91072794302257
H        -5.25598327462809    3.37446588398194  -13.25301858846437
H        -3.53731935133267    3.82253441762103  -13.45416712579397
H        -4.18280795551027    3.44024679714234  -11.85097883047817
C        -3.41381128461035   -0.70282615418053  -18.06015335707623
H        -3.69511272790798   -0.73743995223160  -19.10276902424421
C        -3.16731575386374   -3.23647854428410  -13.67319716903708
C        -2.12954222916589   -1.01840447488103  -17.66128412619782
H        -1.37681749825282   -1.29667876052159  -18.38317754199622
C        -3.12955681405994   -4.75980239836177  -13.73525011399487
H        -3.47498449170907   -5.15691475168967  -12.78314059993363
H        -2.11520484047762   -5.10082943142923  -13.91975175036108
H        -3.79969581144907   -5.11102742281854  -14.51544265649173
C        -1.79516329985681   -0.99501526142281  -16.30843353694021
C        -5.77648023313732   -0.13025830641040  -17.40763851991876
C        -6.71311601653229   -1.12614566343005  -17.11828531946322
C        -8.04562660036698   -0.89161133983197  -17.41584541824194
H        -8.77837809362309   -1.65604272486400  -17.19855779424378
C        -8.46437804024453    0.30536728663790  -17.98225150492771
C        -7.51860253896646    1.28260624709786  -18.24991586857523
H        -7.83149119251202    2.22255634733246  -18.68293845440141
C        -6.17547113295502    1.08177608761720  -17.96666068357252
C        -6.27550736478417   -2.42694569367919  -16.51738432614099
H        -5.82516121638589   -2.27751042098893  -15.53580106354255
H        -5.52776426130935   -2.90581100961583  -17.15067436077179
H        -7.12147294035075   -3.10104617176091  -16.40925537518545
C        -9.91656531737584    0.52982552193933  -18.27889596401667
H       -10.48290727383918    0.59414750542785  -17.35005948816289
H       -10.32139852986493   -0.29854713139658  -18.85821163562362
H       -10.06364627466368    1.45159284772604  -18.83617363084929
C        -5.16514003733891    2.15735071728683  -18.23853111239182
H        -4.49371668494189    1.86273062961073  -19.04491204174271
H        -4.55878199877606    2.34202765034057  -17.35257339128309
H        -5.65809355130739    3.08305121881765  -18.52467837350133
C        -0.46379850381703   -1.47798404079673  -15.87145959008591
C         0.47960285095173   -0.60970209788551  -15.31552338123064
C         1.75363745906460   -1.08650956161825  -15.04177591266923
H         2.49431075330701   -0.40155979523019  -14.65899322766251
C         2.09348503152938   -2.41229311279247  -15.25166727843470
C         1.12814223367651   -3.27178268845409  -15.75696123222726
H         1.37566068914070   -4.31305076161569  -15.91120955745661
C        -0.13928938493735   -2.82294128612418  -16.08844746558238
C         0.14612589975675    0.82710089054841  -15.04938603837577
H         1.04988873575221    1.40130503678649  -14.86135541795217
H        -0.49445317540466    0.89580071967064  -14.15975887737246
H        -0.38934627445678    1.27128293353826  -15.88839109772182
C         3.46935564221990   -2.92241145225864  -14.94388301016541
H         3.88333269022072   -3.44872906115921  -15.80275598857162
H         3.43439114556518   -3.62612836289045  -14.11226010652991
H         4.13733202798913   -2.10602449766665  -14.68104486600847
C        -1.13423735349584   -3.78597595655361  -16.66881656652044
H        -0.87133702164589   -4.80596287756503  -16.39815219396443
H        -1.14542119304957   -3.72136743788443  -17.75728527266125
H        -2.13763932808076   -3.57672273729093  -16.30578635151637
C        -3.63724319425129   -1.11005111103650  -10.98769904432459
H        -4.48323351269742   -1.06091770274528  -11.67283521360773
C        -3.82132942793143   -1.48080373251227   -9.66218719747125
C        -2.70152786461909   -1.50700325914058   -8.83248689080877
H        -2.79655656762153   -1.81073520762418   -7.80003115591424
C        -1.47378461459380   -1.14618277052056   -9.35326995383602
H        -0.58585457945385   -1.14294098181820   -8.73844524828069
C        -1.37257185486962   -0.77909183096822  -10.69279701360363
C        -5.16670134276404   -1.83754906167462   -9.16422197816497
C        -5.78234107572703   -3.01150805990757   -9.60550780564180
C        -7.03547038729790   -3.33743175345982   -9.11216998210706
H        -7.51373544717054   -4.24725349302618   -9.44682580827901
C        -7.69389600424457   -2.52079142223776   -8.20319969233685
C        -7.07454740896240   -1.35019306604229   -7.79390384786297
H        -7.58111058504255   -0.69567519566148   -7.09838109195134
C        -5.81887266575970   -0.99477247600797   -8.26354372514147
C        -5.10395853509028   -3.90640787104878  -10.59773838655809
H        -4.05055584287654   -4.03520839525806  -10.35076515185577
H        -5.16245923425441   -3.47404045580404  -11.59705946795160
H        -5.58303932561604   -4.88271731468340  -10.62023948335520
C        -9.04200065893846   -2.91012651320188   -7.67650802330334
H        -9.51301027532823   -2.07924770542040   -7.15735575023418
H        -8.94568418117766   -3.74132814153941   -6.97747283735242
H        -9.69179696273236   -3.23157271990895   -8.48823686862843
C        -5.18698160253459    0.29532682276326   -7.82881723716872
H        -4.77262304359337    0.82477437761504   -8.68526318595204
H        -4.37707919442604    0.11396284045820   -7.12241490883656
H        -5.92168044171725    0.93397509926198   -7.34472827914349
C        -0.06049842512807   -0.35223841335341  -11.24244049666331
C         0.26785790016799    1.00813236698017  -11.23966852177134
C         1.54236013877164    1.39162082904383  -11.62533333865268
H         1.79934162155317    2.44166942132950  -11.62807593033127
C         2.50272477081973    0.45570178565142  -11.98279889443081
C         2.15847851587573   -0.88665221880857  -11.97578449448598
H         2.89736473117957   -1.62722598400951  -12.24422778260148
C         0.88573535638501   -1.30817051175165  -11.62038337722305
C        -0.74088625863832    2.03365810034712  -10.82116278510778
H        -1.21043206600105    1.75969398452559   -9.87668357305514
H        -1.52056676656711    2.10114015927490  -11.58014194792249
H        -0.27716726556859    3.01107568031849  -10.71400034367076
C         3.88389665789219    0.90228294058391  -12.36088071078949
H         3.84809064018006    1.57001355235374  -13.22149645690394
H         4.51663710652065    0.05230754572737  -12.60487409439307
H         4.34386507320351    1.45034448994440  -11.53939795333870
C         0.53361095453144   -2.76279055058825  -11.63532465112263
H         1.39286944636136   -3.36415963119080  -11.92018541051216
H        -0.26587984432739   -2.93325369555668  -12.35648258287322
H         0.18214468483331   -3.09187241641533  -10.65750938056264

