82
CSD_code = ICECUP | q = 0 | S = 0 | Stoichiometry = C37H32BN7O3SZn | MND = 4
Zn        2.92802205191043    9.35793253002941    9.16240683035710
N         2.66867839948081    9.69303778218173    7.19526381627651
N         1.45842541904879    8.03404174618773    9.07372714804934
N         1.85855153853841   10.95273747908307    9.56867009500133
N         1.36792065620078    9.82525273266295    6.87104218546202
N         0.28585961155884    8.56210915461461    8.69801979984404
N         0.66236320259045   11.00219468598376    8.96710594989084
N         4.63018821586408    8.84658859048612    9.90302840484177
O         2.96575432695037    8.87638139341798   11.39174846511784
O         6.45608460256665    7.49489014630260    8.74407851642867
O         7.04938366964571    9.61764675773785    9.79956892349637
S         6.22715169159040    8.44034413542508    9.79646916490625
B         0.27836556298218    9.91340663495368    7.95045082360025
H        -0.77763699294945   10.13250880438394    7.47553563644359
C         1.22513563721580    9.75047220363204    5.53484187644526
C         2.47802174810835    9.55822088412807    4.98409181437962
H         2.72320808018908    9.47214067925995    3.94543200601517
C         3.36194837166910    9.52962288759792    6.06932302858950
C        -0.07944468036172    9.85927451543886    4.83097720466761
H        -0.74132132620876    9.04602736074399    5.12318222231842
H         0.08286306021458    9.81207066246948    3.75777872772768
H        -0.57049737394304   10.79945147186462    5.07343489083264
C         4.81129562659210    9.37804833605570    6.05046112841750
C         5.41016689149899    8.50021651379018    5.15025455892513
H         4.79106871402720    7.90940720631256    4.49037072703029
C         6.78475308232502    8.36692084954792    5.12016986253769
H         7.24168807876877    7.67247935362128    4.42974049968150
C         7.57515296567654    9.11904644799248    5.97286991963129
H         8.64952327042219    9.01382703096323    5.94613882063193
C         6.98807828622843   10.00330304389205    6.86143545836147
H         7.59880292210514   10.58562115575583    7.53247096579395
C         5.61268525064598   10.12599387750602    6.90773511582493
H         5.15164722430687   10.82240233136585    7.59256924744605
C        -0.71898834163875    7.75596101977174    9.08215729920184
C        -0.16319245080635    6.67083561837769    9.73814231897820
H        -0.68212060063875    5.83396321929741   10.15928225467818
C         1.21855583945073    6.88756650923674    9.70808246488893
C        -2.15369329237355    8.04630049692315    8.82482630156041
H        -2.33123913062415    8.20435877004533    7.76316640594810
H        -2.46097823562788    8.94541248319154    9.35622423421519
H        -2.76183241058185    7.21322243265968    9.16585878930611
C         2.31340597528218    6.08407075596892   10.23699347813146
C         3.51801123222007    5.99898307018807    9.54161058360011
H         3.62710540621421    6.49048715484080    8.58497568707361
C         4.57646379998178    5.27818083123590   10.06327118812152
H         5.50535508153129    5.23655256747211    9.51532054047704
C         4.44463694093000    4.63466202174952   11.28287577622550
H         5.27432559023825    4.07902713434909   11.69526480979017
C         3.24590582027230    4.70500990150868   11.97407319125286
H         3.14123588678639    4.20227790724214   12.92488510598565
C         2.18402622357881    5.42161048160363   11.45492490712524
H         1.25520351187767    5.49194303347342   12.00138058436066
C        -0.06511124759281   12.00460994707428    9.49276740689343
C         0.69612016219618   12.60958774703075   10.47781929213173
H         0.42061294373052   13.44804432151236   11.08438997287675
C         1.90767103136790   11.91021648452033   10.49297532408531
C        -1.43823291018060   12.35398043496894    9.04367069048451
H        -1.44726556392484   12.57574313555244    7.97837459886254
H        -1.78935934413167   13.22542729262142    9.58923291108697
H        -2.12390368487986   11.52766951696395    9.22119602153403
C         3.08353718074889   12.05382847762441   11.34127773605329
C         4.35347221905791   11.82177836586174   10.81870907238937
H         4.47143936456164   11.63191925777459    9.76143724898785
C         5.46558460168263   11.84313163356623   11.63910867499215
H         6.43612953415747   11.62345993087028   11.22022588206997
C         5.32184771578888   12.11963910822999   12.98904470408931
H         6.18776792390441   12.12828974648598   13.63510893021717
C         4.06647889781607   12.39006998593262   13.50992862046135
H         3.95536650536986   12.61493825568867   14.56117030934511
C         2.95114829913166   12.35556582355331   12.69404210488720
H         1.96898913532747   12.53450020484047   13.10631665618554
C         6.30305508780619    7.68979461758897   11.42214267938625
C         7.31574886772316    7.03180256630110   12.07922036989519
H         8.26422271118382    6.86021319922441   11.59534357543284
C         7.07006426948923    6.59175710526442   13.37538058685557
H         7.84307205818932    6.06352037568656   13.91352696670900
C         5.84532719233732    6.82382231541571   13.98519181698318
H         5.67924344905501    6.47384197767472   14.99325163936355
C         4.83330324439881    7.49545243912158   13.31631411771971
H         3.87331580239264    7.68287549448860   13.77066687426355
C         5.07946733707759    7.92602608695461   12.02311957347522
C         4.13061258469900    8.59574935705636   11.10913588638882

