43
CSD_code = ICEDUS | q = 1 | S = 0 | Stoichiometry = C14H26N2Rh(1+) | MND = 6
Rh        7.27305822347872    1.32241368192193    8.02354514394606
N         8.51817638226673    1.68893725017459    9.57034127992945
N         9.04123285652845    1.27728655334636    6.77910651825411
C         6.15678180593133    0.17169108481082    6.60385199783277
C         5.88351798509870    1.51041863132969    6.38367782323087
C         4.59313436146534    2.18319108143540    6.79307961239266
H         3.78585019999398    1.45276440224332    6.76563238193333
H         4.35150499878489    2.95786474783204    6.06484714305514
C         4.69153522609207    2.83486982220057    8.18551295789637
H         5.05099660255991    3.86066159953435    8.07497596102959
H         3.69951720407635    2.89147449499067    8.64252111335074
C         5.62474885942515    2.11067187226834    9.12460430485683
C         5.65486609787383    0.73515434303285    9.31731815921045
C         4.69402242479921   -0.22453024280725    8.65276449959723
H         3.74670123473337    0.28315518040204    8.47711254771281
H         4.49493470744165   -1.05382207920826    9.33197348090137
C         5.26120768328315   -0.79361645755668    7.33968746108487
H         5.84394016652589   -1.69008869722718    7.56349181660132
H         4.44457116767335   -1.09847862038068    6.67893744796743
C         9.73542296201851    2.06184189462155    9.62300630758277
C        10.60666892546877    2.24086243456834    8.41472923765809
H        11.25679941380786    1.35878050112996    8.37528354124921
H        11.26281526557167    3.09476835547761    8.59282811085291
C         9.93702276665355    2.42122552546513    7.04189704808542
C        11.03618058080055    2.47053182379744    5.97462978477418
H        11.62773028037209    1.55692749832013    5.97664869295808
H        11.70622401273409    3.30670357939879    6.15168928488653
H        10.60243250133820    2.59699151100603    4.98509025288514
C         9.10205051852719    3.70268654811853    6.99037367066327
H         8.74325549044397    3.87711871472653    5.97881205019409
H         9.69769236089200    4.56045458177470    7.28842972990289
H         8.23631595095341    3.62386132060884    7.65806991661410
C        10.42127805182755    2.32863341511709   10.92193503994699
H         9.85057082816177    1.94906532288754   11.76670164345301
H        10.54493925234304    3.40453060452780   11.04843790123038
H        11.41510806131146    1.88650593438363   10.93535692953543
H         6.86073673451139   -0.32641872589097    5.93349698203673
H         6.40863556817535    2.01023553728954    5.56825405701555
H         6.00367653325692    2.75018874073894    9.92471959895425
H         6.08916330507518    0.35946432624510   10.24463739889364
H         8.09319647548662    1.58719768284919   10.49473091868014
H         8.77078175813856    1.30483998779512    5.79485370834596
H         9.55350421409930    0.40358423669839    6.91650654281706

