43
CSD_code = ICEDIG | q = 1 | S = 0 | Stoichiometry = C14H26IrN2(1+) | MND = 6
Ir        2.88482779734283    7.26603351232510    1.02741664980966
N         4.26269833526090    6.66506244089360   -0.35443657646515
N         1.36402109289056    6.36335502252366   -0.28815836196694
C         1.59583384701031    7.16212064796386    2.73653104996645
C         1.47023281708165    8.42840437917321    2.17537531282959
H         0.59672763076005    8.62257643445008    1.55457788810186
C         2.08063768792805    9.67077790608241    2.78593245215865
C         3.48044251361661    9.97422054218226    2.21955432761465
C         4.22903122329132    8.73852616672266    1.78003140080684
H         5.01522982566251    8.96101279494490    1.05775093233818
C         4.36454045579607    7.57421348582666    2.54988895999525
C         3.81620647283347    7.44454879440947    3.95546990276288
C         2.39675474620626    6.84788326993042    3.97679273212915
C         4.16750167116773    6.14732841148552   -1.51840555875447
C         2.85881454250593    5.78745831488063   -2.15806198054311
C         1.60070205431948    6.56455946289227   -1.73375959601531
C         0.40817532845332    6.02194257584690   -2.52970533704264
H         0.26922096742402    4.95683215637850   -2.35341054008760
H         0.55683133841817    6.17114175746267   -3.59515650332201
H        -0.50603002072304    6.53965294099155   -2.24722065612589
C         1.75962014757622    8.06203844044482   -1.99291566039074
H         0.83565549551979    8.58517331518450   -1.76068631001267
H         1.99657702480824    8.24422271145196   -3.03690495654077
H         2.55354540034270    8.47885432427808   -1.37557088569807
C         5.36980894138039    5.82193207913747   -2.33935647879320
H         6.28594448495722    5.87567427435165   -1.75540410619701
H         5.44611793008793    6.53125976929437   -3.16396928855698
H         5.28256715986269    4.82913332082935   -2.77599665705262
H         0.80033347788213    6.44008008227405    2.54988936252017
H         1.43100973769485   10.52186549426481    2.58237476670475
H         2.12406080210181    9.54935913388492    3.86735533959088
H         3.38094739598067   10.63186255251947    1.35490891522468
H         4.07708161212314   10.51001566246298    2.96263777271108
H         5.23279498057663    6.94621436945315    2.35705930981432
H         3.82800716072828    8.42389632004935    4.43200172849389
H         4.47335838485374    6.79635336735957    4.53452901121265
H         1.85294124484132    7.20577459911786    4.85534178821491
H         2.46851266483498    5.76316237735452    4.06454168717868
H         2.69862399405675    4.72150357314403   -1.95669515934756
H         2.97045988615967    5.88250786602264   -3.23936669950098
H         5.23423912500820    6.81022105804780   -0.07292086810453
H         0.45235830512705    6.76310898226683   -0.06262856466478
H         1.29073431624653    5.36213530943906   -0.10033054499575

