88
CSD_code = ICEFIG | q = 0 | S = 0 | Stoichiometry = C34H48N2O3Ti | MND = 5
Ti        6.93591606700020    2.26232876911518    4.63861340164622
O         6.07513511802170    2.64002257963060    5.92821731588030
O         8.23160718902927    3.56264402645511    4.33073573216724
O         6.32906587656080    0.66006462827993    3.91363357167914
N         5.80266402778732    3.34669704962350    3.30729169224105
N         8.29340957877413    1.07865175829321    5.63248663959003
C         9.08622388588356    5.70694674722180    4.93682429036643
H         9.82294701235073    5.09705338995937    5.45621984861030
H         8.68321142246734    6.45614535316245    5.61320733135467
H         9.57409190038724    6.21888647085331    4.10753861603788
C         7.98078600107928    4.81477667349576    4.40831105717611
C         6.81223553421630    5.38916472310610    3.95076409764849
H         6.70266901473139    6.46206005190414    4.00171785479489
C         5.77233182397729    4.64569575949581    3.34217819779765
C         4.66724782815474    5.43771211728165    2.68564914172874
H         4.05482704710949    4.80179730904846    2.04984907928820
H         5.08782179675490    6.24650095550226    2.09137164598135
H         4.03630902946884    5.87905623347778    3.45555518496384
C         4.82825246937421    2.57926433357383    2.64773321813905
C         3.58026393653466    2.31545892578406    3.23608656228820
C         2.68547153992742    1.50120119931277    2.55366121172842
H         1.72346269706530    1.28495243686063    2.99421153573860
C         2.99805861438924    0.96270975392080    1.31929028495490
H         2.28338062725170    0.33834942993965    0.80286919567975
C         4.23317651946399    1.21824254339155    0.75313347944443
H         4.47631390614802    0.78684806933388   -0.20669353306267
C         5.16014877447274    2.01873357388249    1.40313314625616
C         3.21346019992945    2.86217527866430    4.59719262973939
H         4.02119400269345    3.51451553140779    4.95025638624095
C         1.90687752077384    3.65918293118264    4.54204427475281
H         1.73668742559869    4.15865435016844    5.49304081987820
H         1.05964134735255    3.00543328663524    4.34730477666700
H         1.94157222941619    4.41242088355036    3.75766942843011
C         3.11186993334938    1.71629807025639    5.60960600618784
H         4.11116337622547    1.30948219062199    5.77594220838515
H         2.44619387371292    0.93023591896209    5.25839659518202
H         2.73698929055735    2.09619366096364    6.55732819633938
C         6.52235284082421    2.26530393467664    0.79095913888848
H         7.09711146427216    2.91079738962660    1.46987778611231
C         6.40269807620776    2.98051176193511   -0.55657586752787
H         5.86406232648944    3.91921621973185   -0.44262295157019
H         5.86893059183175    2.36536002264691   -1.27729585400330
H         7.39116784537378    3.19686678543870   -0.95729776905365
C         7.28318408941918    0.94439066663308    0.65002761611204
H         7.35943578730932    0.46082782977551    1.62376391767500
H         8.28536616290689    1.12533440847950    0.26554814910317
H         6.77082039967186    0.26964033967101   -0.03246142976143
C         4.89203176491348   -1.22657404398220    4.17549954678212
H         4.26418405739642   -0.65920976508975    3.49135152845066
H         4.30377319299513   -1.56746317829999    5.02283856730215
H         5.28044074200070   -2.09979491045196    3.65163443708715
C         6.04340486134799   -0.35584699953479    4.63699961129584
C         6.78319455203729   -0.74190135540926    5.73624798892300
H         6.50866764856153   -1.64509715847329    6.26022674068622
C         7.94063897830492   -0.05114574346417    6.16975729715424
C         8.77104525101268   -0.72317371681650    7.23664936813926
H         9.74349606875615   -0.24511356014894    7.33444056327890
H         8.90748434426114   -1.77610969121547    6.99760681934723
H         8.24898480662759   -0.65974565648297    8.19017490155265
C         9.47339866503344    1.75480679137431    5.98467164821833
C        10.56385469818487    1.68463025732991    5.10193910578276
C        11.72231466827973    2.38546895782403    5.40100068629708
H        12.56776432536936    2.33525951906155    4.73079782157587
C        11.80987804611937    3.15145828272996    6.54854019730248
H        12.71807571165329    3.69250493368088    6.77158187127639
C        10.72698991548770    3.22966484599512    7.40446271314918
H        10.80052587352028    3.84033907825704    8.29212654517978
C         9.54984945888184    2.53843360570863    7.14801261544386
C        10.46658835181102    0.87447781115491    3.82705078490363
H         9.47303958170105    0.40649852352710    3.78702981709414
C        10.59760404466236    1.79293817357860    2.60932950360623
H         9.83556929435338    2.57093203740967    2.65442056390274
H        10.46749987765452    1.22309415128609    1.69099352647371
H        11.57605518001568    2.26793439724831    2.58257652642108
C        11.51692758919977   -0.23793455800828    3.79580457572897
H        11.39839218953729   -0.84283376842688    2.89882891962667
H        11.41171581017926   -0.88518085441608    4.66432867014701
H        12.52251981374331    0.17621519902433    3.79797392139447
C         8.37764742336523    2.67111648421534    8.09373503994117
H         7.56412648166803    2.02156652011515    7.74881831401976
C         8.76911254118403    2.27716024596630    9.52096795590786
H         9.24064761361377    1.29680422306459    9.54001076850182
H         7.88476063244465    2.24715894951469   10.15329549983327
H         9.46500767791682    2.99655514340706    9.94679623670749
C         7.83248467906532    4.10262436606598    8.05226186806780
H         7.37331214965125    4.27152478297735    7.07635551486243
H         8.61896221614574    4.83521925297678    8.22296106756692
H         7.06652119905001    4.22583210374372    8.81460649316457

