39
CSD_code = ICEFIF | q = 0 | S = 0 | Stoichiometry = C10H19F7N2Pd | MND = 4
Pd        9.94546149836307    8.41618480415924    8.14538696316962
F        10.11861278424201    5.67754447126311    8.49084478949502
F        12.13430392648219    6.44922138782555    8.63330740327896
F         9.78581422219935    6.78569766719690    6.02130940545461
F        11.73169177081640    7.71740006903666    6.09624222584853
F        10.98067076608060    4.26832700334777    6.27573138098334
F        11.64264510716337    5.41844763958910    4.58706288399701
F        12.92906578905047    5.18913617201563    6.29306041299336
N         7.72237325488860    7.53250499455291    8.21369913604627
N         8.82019780365077   10.22617153920444    7.78908962740925
C         6.87008253580999    8.64463532136883    7.79084265724560
C         7.42372260808911   10.01689642117455    8.18048865454249
C         7.21886786000714    6.30604031160716    7.60262303316532
C         7.69815059245257    7.38215125781393    9.67440366277916
C         9.25097455229251   11.51732735116823    8.31678368002038
C         8.96470934387625   10.23325706428423    6.32981810902318
C        11.68556038359567    9.38967386619282    8.67746439663247
C        10.91771887390549    6.73156427707871    8.08448608119886
C        11.04333511779932    6.63224989586544    6.55017424271739
C        11.66310260383329    5.35916044478444    5.92572335035699
H         5.86084413656242    8.54818716427970    8.23036957001484
H         6.75901415240113    8.59101747400443    6.70399940462188
H         6.78160335022532   10.78723929037568    7.71826621539835
H         7.35995131909083   10.14220908338816    9.26559115220358
H         6.17864717278090    6.11418214707482    7.90293500637176
H         7.83180175479214    5.46210973908231    7.90878383751711
H         7.26310366350198    6.38417256383160    6.51712614850254
H         6.66635279820793    7.28513438167232   10.04552398127587
H         8.17890263828454    8.24097009885861   10.15834148282946
H         8.25317751044744    6.48398977834656    9.94847586482261
H         8.60459861374039   12.32707559719146    7.94892764212506
H        10.27407235772457   11.72350110486380    8.00959690917722
H         9.21153917274196   11.50694565656468    9.40599799529627
H         8.31385505511168   10.99336740055124    5.87143164057871
H         8.71310735871900    9.25357583737395    5.91237295788984
H        10.00298485571066   10.45841871665792    6.07132045230015
H        12.50967345649682    8.73589076907060    8.96077409652964
H        11.43740780180750   10.03335265031710    9.52972742591921
H        12.00090143704862    9.99756858696107    7.82129612025746

