49
CSD_code = ICEGOO | q = 0 | S = 0 | Stoichiometry = C22H18N4PdS4 | MND = 4
Pd        0.00240084501559    4.63124410857613    1.99367749848576
S        -1.53765225147641    3.03094150790710    1.53867417515701
S         1.51201888400869    6.28864031012593    2.50284785461917
C         3.58284300240668    8.77745328387768    2.06865298592277
N         1.22436842818972    8.90251119853428    2.68068955369259
C         0.65568873369175    7.73666544489929    2.28883471755309
C        -1.37556588501851    0.37073284694211    1.61955099683038
C        -0.66198288954156    1.56421537379986    1.82246332688724
C         3.61337807872377    9.70787450150335    1.03700022296874
H         2.93761532656563   10.55192169177255    1.05142321895737
C         2.57948111971577    8.92932118663147    3.18940712511180
H         2.70616977941087    8.11394051518778    3.90898352988891
H         2.72607128780653    9.87986511130256    3.70698631846255
C         4.50704730729114    9.56614246266716   -0.00893751920516
H         4.52243363478153   10.29585487582961   -0.80509090880374
C         4.46129310521679    7.70401317317301    2.03846990742049
H         4.44088065684027    6.97293370264461    2.83231632082514
C         0.41583334141122   10.09642895453788    2.66284631012270
H        -0.25245184443662   10.11182037898710    3.53598142672034
H         1.06187654057744   10.97416645490197    2.70104086773497
N        -1.98347859437275   -0.58701229833929    1.44523856030381
C         5.38010190358034    8.49162847631584   -0.03343504803966
H         6.07567313753340    8.37950047090167   -0.85133978567768
C         5.35721259077634    7.56329800103494    0.99281265824157
H         6.03345346541668    6.72230186833219    0.97776769095116
S         1.53796631468736    3.03184420514312    2.47046111264518
S        -1.50412975553907    6.29147344310308    1.48537342157019
C        -3.58161892721788    8.78174756988007    1.96604348521708
N        -1.22460843015500    8.90920907813526    1.34835785428418
C        -0.65274556449489    7.73913135980009    1.72209636184951
C         1.36065039732905    0.37167462884320    2.44897601491576
C         0.65365100689618    1.56459219299891    2.22001657064459
C        -3.61638545752546    9.70984823413594    2.99973014688677
H        -2.94673289721207   10.55875794864171    2.98567702687392
C        -2.58128388884300    8.94202660967502    0.84373082756838
H        -2.71053035913323    8.13290121005180    0.11774299370263
H        -2.72799525311021    9.89711946596911    0.33460925094992
C        -4.50689231382684    9.55994841793611    4.04725080654971
H        -4.52563783208915   10.28803516958214    4.84483099914667
C        -4.45291412468273    7.70243934464127    1.99580955391970
H        -4.42967687252517    6.97341022770158    1.20017593824173
C        -0.41986311255333   10.10529843870095    1.38620228562529
H         0.24842775745324   10.13685978843291    0.51354674037354
H        -1.06859055576312   10.98148466348732    1.36196559008363
N         1.96420221415656   -0.58523428564485    2.64198886378101
C        -5.37253571093104    8.47942779769978    4.07142617420702
H        -6.06557475750874    8.36088887594086    4.89057367283417
C        -5.34561170598977    7.55348906786470    3.04312679420026
H        -6.01627987553844    6.70802294523268    3.05772550879606

