49
CSD_code = ICEGUU | q = 0 | S = 0 | Stoichiometry = C22H18N4PtS4 | MND = 4
Pt       -0.00084057272675    4.68583824806864    2.02292448021167
S        -1.54068031847242    3.07050503920941    1.55721668860030
S         1.51410752562109    6.35524614674637    2.52442530072581
C         3.59758774099660    8.78742263989160    2.04336269147708
N         1.24136399655407    8.97125952063526    2.65675945703984
C         0.65714191526763    7.80214241996541    2.29555189123098
C        -1.36224957568395    0.41257486567235    1.60811933667443
C        -0.65612776464056    1.60739736038897    1.82437496857909
C         3.60698192828162    9.65372834909610    0.95710964483956
H         2.91247425232033   10.48179551098546    0.92215052590817
C         2.59829402494338    8.99142859644065    3.15944331105574
H         2.71617185719070    8.19916059080008    3.90646512147329
H         2.76327655190942    9.95610694723057    3.64474932391710
C         4.50210564561093    9.46734407835010   -0.08050556272582
H         4.50081652604823   10.14711426585557   -0.91982461723147
C         4.49757155773791    7.73217181964018    2.07583722779782
H         4.49206947602833    7.04940062431930    2.91195412060202
C         0.43658577221380   10.16758882152578    2.65011322497290
H        -0.20481228109655   10.19637221448853    3.54294293543237
H         1.08720277580932   11.04296325522973    2.65846847690873
N        -1.96232523214888   -0.54807576199426    1.42306535834305
C         5.39793603898506    8.41221220614561   -0.04154771792902
H         6.09500655109788    8.26531588394086   -0.85260572665027
C         5.39526431556783    7.54710756253505    1.03877484288548
H         6.08867697092480    6.72076183504709    1.07278241702575
S         1.54232080366475    3.07197752790818    2.49033241730058
S        -1.51452649420206    6.35544277764086    1.52324595991976
C        -3.59816490864621    8.78873577722716    2.00540454047740
N        -1.24177879357027    8.97156120694510    1.39193995488106
C        -0.65760566697044    7.80227187821356    1.75259462294280
C         1.36670305947509    0.41402057671492    2.43917217781875
C         0.65903364857812    1.60803150365242    2.22334024563141
C        -3.60726199778879    9.65511766688979    3.09160074946617
H        -2.91233700217653   10.48282925676351    3.12663070134404
C        -2.59874141334813    8.99216382873234    0.88933585335740
H        -2.71696142284316    8.19982167492853    0.14245800977941
H        -2.76337161503667    9.95681521556670    0.40384963596362
C        -4.50262895987221    9.46926183241167    4.12910138843858
H        -4.50107709852864   10.14905775367787    4.96839876867646
C        -4.49870582047899    7.73396319011361    1.97287168127627
H        -4.49344637585825    7.05115568628730    1.13678263258823
C        -0.43693947188333   10.16785203917382    1.39908509286099
H         0.20449891263994   10.19689420415008    0.50629746973470
H        -1.08753036456185   11.04324488457718    1.39099626558608
N         1.96760485813473   -0.54584057653843    2.62611242311308
C        -5.39905631228654    8.41463991312405    4.09005587920172
H        -6.09634207039629    8.26818366339148    4.90100885874336
C        -5.39669161721637    7.54947345711234    3.00978546627000
H        -6.09059355516625    6.72354202111918    2.97569148345810

