73
CSD_code = ICEHOP | q = 0 | S = 0 | Stoichiometry = C38H30N2S2Zn | MND = 4
Zn       11.73268700773266    2.79412592497732   13.03190190116746
S        11.05054543581866    2.97273366610015   15.27215465211587
S        11.20286196048231    2.55281191834210   10.75465911515543
N        13.51475741818740    1.80625295644439   13.77055765738617
N        13.39447393385403    4.03027254197360   12.39685405637936
C        14.67128783899313    2.45190982731468   13.59926403756691
C        15.80243326898161    2.11159979518396   14.33112204315264
C        15.70549798026466    1.08789160256556   15.26166406506650
C        14.48883223317216    0.45906823501854   15.45696998535488
C        13.39739600004082    0.85579431155400   14.68661801895350
C        12.01999902531454    0.33537557779453   14.90303049474782
C        11.26743736938266    1.24536676767117   15.91031618166067
C        12.09229597426483    1.25308477999934   17.18455362580449
C        13.00751409774354    2.25600863502841   17.46890988279378
C        13.79830257795468    2.18826999698946   18.60240036926169
C        13.68826066962405    1.11322559927386   19.46582568954515
C        12.77888798118824    0.10588977093787   19.18927917548916
C        11.99021927719822    0.17281770489186   18.05583810565333
C         9.86304687189850    0.76234660429118   16.19423116454913
C         9.18166119813529    1.36213655795521   17.25197131484790
C         7.88734796709902    0.99646770741461   17.56060732217023
C         7.24303871873531    0.02339657694446   16.81349575785678
C         7.90577918621795   -0.56941211989672   15.75558446345201
C         9.20623828817980   -0.20429649845598   15.44541075039516
C        14.61924252017399    3.54887473931780   12.62434337312435
C        15.72675595467837    4.04738603184650   11.94922983812105
C        15.53473568609805    5.05634727771523   11.01730966917123
C        14.25429150991766    5.51568093966086   10.76544088263132
C        13.19190548189776    4.96539410308746   11.47993245530951
C        11.76751438376866    5.29339547090543   11.20012825168791
C        11.20026744331576    4.30435441593488   10.14681694182911
C        12.07765440101346    4.44023536892821    8.91566017803015
C        11.87315903230737    5.52298620188281    8.06544870878967
C        12.69901237623881    5.72834502451902    6.97612910514238
C        13.74753241257429    4.85938541337849    6.72328488820217
C        13.95859449772523    3.78240068301011    7.56514913269538
C        13.13082573534811    3.57610901206832    8.65480384862315
C         9.75636300103717    4.58814897037048    9.79954596401712
C         8.92605384861128    5.41439515514051   10.54434545160834
C         7.60374011425107    5.59995197609633   10.17362597200334
C         7.09121755759979    4.96507309775665    9.05815770707764
C         7.90921545543605    4.12880130899405    8.31552197764573
C         9.22561609963223    3.94120251463701    8.68482758682052
H        16.72851371527835    2.64642886224277   14.19562972132542
H        16.56699200433420    0.80023700408394   15.84517048156062
H        14.37637082104149   -0.31733867054783   16.19669348520265
H        12.04996177700986   -0.67589072100138   15.31440821502144
H        11.48504705624559    0.33499587294899   13.94840165499222
H        13.08543163538400    3.10278967002094   16.80375873637701
H        14.50241742139374    2.98099690072299   18.80987319793404
H        14.30391063945563    1.06058042586080   20.35180308665582
H        12.68317702212424   -0.73649198243200   19.85899606457876
H        11.28139444954091   -0.61655292160904   17.84779343153566
H         9.68017815711302    2.13233475623610   17.82199947328041
H         7.37779255092139    1.47412210318692   18.38457563940024
H         6.22965469779146   -0.26481125883388   17.05135161096687
H         7.41131611563537   -1.32351366585853   15.16028203715788
H         9.68970387858962   -0.68695165502355   14.60983177765175
H        16.71004815173387    3.64368163726824   12.12866953336939
H        16.37548129109332    5.46415201840881   10.47670843692476
H        14.07234585311813    6.27740828347774   10.02431156485644
H        11.67418697885941    6.30594329867180   10.80177274108903
H        11.19369078870041    5.20240623717872   12.12735691027091
H        11.05537459273004    6.20427962731708    8.25508405034177
H        12.52358533656979    6.57062412797711    6.32260476649602
H        14.39286139143724    5.02063830926389    5.87222804299506
H        14.77159534635097    3.09665318955784    7.37540871360147
H        13.28965899111689    2.72776383415304    9.30328513614152
H         9.28923866756360    5.92416925005561   11.42360347266487
H         6.97346588332284    6.24698005024981   10.76660487917551
H         6.06041918141359    5.11434586169272    8.77223171917059
H         7.51877479322054    3.61892749586751    7.44698908591136
H         9.86011101887707    3.27658591331090    8.11705057028403

