54
CSD_code = ICEHAZ | q = 1 | S = 0 | Stoichiometry = C20H30Cl2PZr(1+) | MND = 12
Zr        0.00007664907683    2.74236132830981    3.38111403096164
P        -0.00001323528969    5.87212726897077    3.38104644824471
Cl        1.10101354704617    1.19410319092824    4.69022779703244
C         1.08723370256883    4.76901005953680    2.47237540920054
C         0.60241612129782    4.01952500742458    1.32625278378245
C         1.36973919619604    2.84299316737566    1.22346055993360
C         2.28705892234430    2.80023747616688    2.31390844109276
C         2.10094016244564    3.95035516112711    3.10876380342274
C        -0.29392295295314    4.51885550913980    0.22625982767567
C         1.34573353514238    1.84892219711524    0.10210458607717
C         3.35900780304505    1.76778459467003    2.48757947677094
C         3.04126533470559    4.30206215901438    4.22811937899291
C         0.87646078833019    7.04098510920510    4.46440715998729
H        -0.04273898113893    5.54752685603420   -0.03037461537062
H        -1.35412140752560    4.45383297094075    0.47116676606285
H        -0.13169341020710    3.91837060475963   -0.66641205170359
H         2.07597730969310    2.12662355927286   -0.66052086697842
H         0.36250105783758    1.79019313091850   -0.36112013614417
H         1.60570457170979    0.85607507988769    0.46804499297691
H         2.96664739619292    0.76816610820448    2.29566276679208
H         3.76672474997755    1.78494865431724    3.49572872406383
H         4.17078503469107    1.94973560754945    1.78095177661682
H         2.97697409021094    3.56537099933126    5.03446909111848
H         2.86562159827541    5.29866369405914    4.61957712817121
H         4.06603022696231    4.27903357741232    3.85265127803258
H         1.61215932955151    7.57205754288575    3.85977708815323
H         1.37122163936261    6.57765993971054    5.30943077609270
H         0.14252133255608    7.75421784250653    4.84016627132566
Cl       -1.10135819560190    1.19445636644887    2.07120507537070
C        -1.08727983175271    4.76906758343557    4.28975593530367
C        -0.60235984914553    4.01949542933276    5.43578667381652
C        -2.10100963465276    3.95045217662416    3.65338279042234
C        -1.36963940715883    2.84291426073458    5.53853123235722
C         0.29390731247654    4.51887273959586    6.53581158761615
H         0.04255584831041    5.54749418429451    6.79246911432936
H         1.35411282769283    4.45402552386356    6.29093555268601
H         0.13175355062889    3.91832179499548    7.42844546975387
C        -2.28702455309427    2.80023929134891    4.44812297591659
C        -3.04151810817373    4.30217841877345    2.53418505200163
H        -2.97729272783935    3.56553147279675    1.72779068600115
H        -2.86605547454660    5.29881213470691    2.14273212527254
H        -4.06623440542365    4.27903347726922    2.90977898973556
C        -3.35906255196614    1.76788671536471    4.27435920794595
H        -2.96713370791363    0.76837487645424    4.46773190252109
H        -3.76565432838702    1.78417689192965    3.26571810153515
H        -4.17159310913563    1.95076714434660    4.97991050812869
C        -1.34536526416292    1.84872759152774    6.65977046727718
H        -2.07565679313672    2.12614056200079    7.42244195371713
H        -0.36210372693713    1.79020668574554    7.12294793094084
H        -1.60505058722402    0.85585117854660    6.29371623749784
C        -0.87644639417833    7.04082231276030    2.29749495066530
H        -1.61182116911915    7.57235633727635    2.90211254860603
H        -1.37159354181656    6.57730824099941    1.45279702123723
H        -0.14240028984901    7.75368821205121    1.92124721695943

