71
CSD_code = ICEJEF | q = 0 | S = 0 | Stoichiometry = C17H40B10N2SiZr | MND = 8
Zr        6.59743007859085    6.84153402830738    4.19935961590211
Si        3.67512650479938    7.53396423219543    2.22623865220583
N         7.95407629057321    5.36043567935650    3.95811583844094
N         6.97872145314279    7.57217006599988    6.06523150215484
C         4.78652325743570    5.59099401378270    4.24886240772046
C         3.48002649530819    6.00586726591652    3.36365814988280
C         5.42099094049018    8.17196055521149    2.50857330544265
C         6.60459413262252    7.72576666633720    1.82305951477563
C         7.72410453365734    8.35183562254596    2.41073311733139
C         7.25626219129337    9.20416922843455    3.45128128098228
C         5.85410946858637    9.09440916926246    3.51839398228834
C         6.60726919617520    6.93049642671184    0.54347741547409
C         9.16758313580631    8.27436112955431    1.98471047114595
C         8.08883797539123   10.19557694925489    4.21605078405804
C         5.00603120823194    9.92273933188667    4.44498867684758
C         3.29558205644881    7.01696074137998    0.41909045425964
C         2.29555515447168    8.81218239667453    2.61489512429494
C         8.60196953224202    4.84292128866208    2.77378315001606
C         8.36686628935461    4.58038366625328    5.11006268038410
C         8.39527094224238    7.64077092653226    6.37402572726066
C         6.21486133206258    7.68271012112448    7.28706430893869
B         3.43020020656452    6.28003389314270    5.04228688060075
B         4.26836705024442    4.90568874580614    5.74914602450597
B         4.80700940713690    3.86367138882793    4.44849911519149
B         4.32917061418034    4.59317653493764    2.93396737733909
B         2.00792825393753    5.68040644810901    4.18884813858160
B         2.48902307215054    4.96019775081193    5.73994379155630
B         3.34608635485032    3.43687399800243    5.36197327036141
B         3.38956581314615    3.23931102679898    3.58353132954442
B         2.56194059461061    4.63893824644551    2.88329420422374
B         1.94351478776431    3.92329257701523    4.38469580706219
H         3.54506309488039    7.40114755906567    5.41190640185277
H         4.97183723742930    5.07554793482895    6.68601919932998
H         5.85568458457853    3.33032817509186    4.51467039712198
H         5.01525977589790    4.62436951649178    1.97092061837857
H         1.10247903365423    6.40879667082608    4.00368303326378
H         1.85591466028138    5.11037905857500    6.72170996800069
H         6.23075242944415    5.91505458182792    0.67789655602200
H         5.98071875620582    7.42378514339946   -0.19963463396752
H         7.61134944401563    6.86521143519914    0.12716146375149
H         3.32128073690118    2.51167139579759    6.09044615685098
H         9.27938403652058    7.73393714004886    1.04669188699205
H         9.57126170213178    9.27774318434035    1.83827858332926
H         9.77990642196379    7.77044089649598    2.73938403944196
H         3.38896640013677    2.18536142524334    3.05818315846401
H         8.06128355637656   11.17087479380051    3.72145543048547
H         7.70643509748569   10.32705149683575    5.22759499549163
H         9.12974272953915    9.88055553390700    4.27433293771249
H         2.01859164958276    4.68076047648428    1.84073628139166
H         5.05214018174582   10.97586047845845    4.15617649197957
H         3.96539218335619    9.61618160712532    4.42148056827476
H         5.37066651604017    9.84460299745353    5.47222073634584
H         0.91781048048836    3.34521291956672    4.41449159482739
H         3.54656943476553    7.81461571361685   -0.27268767481206
H         3.82310510494516    6.12353959728268    0.10685411128256
H         2.23438839127794    6.81868898177953    0.30746883566490
H         2.04264910424326    8.86501360082863    3.66839811417269
H         2.58048596658925    9.80682420345817    2.28749788044377
H         1.38636728494164    8.54680899288843    2.08513263193953
H         8.32361379787203    5.42429486297999    1.89374070742368
H         9.70492982119424    4.86925205525376    2.87086121216658
H         8.32561907995790    3.78700656585133    2.59091054162460
H         9.44183567269922    4.72498353410089    5.33595694368174
H         7.77685908520690    4.85956782345272    5.99075338822923
H         8.22687154290188    3.49883145070065    4.93309983454257
H         8.70163664510397    6.86168793799637    7.10080696206236
H         8.99244441087511    7.51578438228133    5.45869496663856
H         8.65807085358442    8.61191245164160    6.83776128663959
H         5.14319470962258    7.66800011894228    7.07496678815820
H         6.43765288821406    6.86282126693412    7.99865389841578
H         6.44878717399339    8.62709192390971    7.81568160772592

