75
CSD_code = ICEKEG | q = 0 | S = 0 | Stoichiometry = C36H34Cl2Si2Zr | MND = 12
Zr       10.06848445706099    6.72484998798553    3.54774495136081
Cl       12.04965288500760    7.66837704173486    4.37989770786838
Cl       10.65085294160438    4.81131685400647    4.77544048379406
Si        9.77342646585721   10.34838246369554    4.42547525540605
Si        9.27817056906626    3.51193597800499    1.81079676420827
C         8.98367567586717    8.64295286252264    4.50543662300573
C         8.06156334652317    8.12088413797093    3.55606507521184
C         7.59843517626458    6.86960156408989    4.01721570217230
C         8.20982770656520    6.61579695188245    5.26706044716478
C         9.06350050330960    7.69545455352057    5.56505002785403
C         9.98110720793616    5.24999357423698    1.65257801573790
C         9.24236671598592    6.40336607965272    1.26793214954812
C        10.13342391075464    7.49177384957024    1.14913884977070
C        11.43520382490865    7.01827406388372    1.43451364613371
C        11.34439964229121    5.64883778687155    1.75027712621378
C        11.04736416245250   10.65801520570082    5.80729157762321
C        10.54046987549271    2.24266760009181    2.46196976952484
C         8.36931888448423   11.61944116006004    4.60630644209067
C         7.10252681034146   11.26165389204624    5.05638327189085
C         6.10143763200565   12.20603763249017    5.19931819350827
C         6.35156855596364   13.53270661686041    4.89331114049448
C         7.60713212145632   13.90753887063252    4.44376349856106
C         8.60192762762120   12.95777267997506    4.30399745333973
C        10.47810798414029   10.58015173771546    2.66832456021431
C        11.81679463104345   10.33627188761531    2.37104315122033
C        12.30952682711159   10.52898613048704    1.09112106566568
C        11.47193437360348   10.96943852703165    0.08032087224420
C        10.13878848781583   11.22352461909682    0.35859840695750
C         9.65178870026376   11.03236132696123    1.63957710023186
C         8.73246518207930    2.97017574603180    0.07065897274358
C         9.17917918073536    3.61798009891979   -1.07652108841693
C         8.79366509098301    3.19082304119290   -2.33481070796583
C         7.94927170865704    2.10208030486009   -2.46841746833439
C         7.49366097060353    1.44514611491821   -1.33720094675981
C         7.88481639912464    1.87742764322269   -0.08361094107539
C         7.69014956546418    3.61930211507910    2.86151669532500
C         6.47540919139295    3.94785869666253    2.25982468287692
C         5.30551680504217    4.01853240855240    2.99537995547748
C         5.32642309612068    3.75548031768205    4.35543450892393
C         6.52130647521050    3.41808385309578    4.96819709160046
C         7.69015536573344    3.35126466207336    4.22827045959583
H         7.67946374216763    8.66298409399745    2.69873814274738
H         6.80590356773822    6.27972202275946    3.57570723333750
H         7.99092312116346    5.77844604324607    5.91760634708739
H         9.62585583474965    7.82765657999258    6.48357110516141
H         8.19740375934568    6.40392421317820    0.98011982623489
H         9.89431921968680    8.47383187013854    0.76247251251145
H        12.34912562660790    7.59123976600730    1.34101768200008
H        12.17888251271596    4.98571716403626    1.95354789168500
H        11.53099334645750   11.62049314978875    5.67288383348341
H        11.81568887477767    9.89258871802025    5.81942160842561
H        10.56405801664448   10.66797908123624    6.78005777348375
H        10.06974703202375    1.27542246499610    2.60729578598090
H         6.89919786030027   10.22748277452085    5.29535325049206
H         5.12355460390486   11.90754032300867    5.54949601326073
H         5.57166345890906   14.27217776145802    5.00354264443346
H         7.80810910025384   14.94168838394032    4.20282358069089
H         9.57863710521679   13.25347055755027    3.94863060177576
H        12.48077789144549   10.00051709141994    3.15271700435473
H        13.35290448448297   10.34128365163404    0.88127695176845
H        11.85583552824816   11.12074669623992   -0.91800749295404
H         9.48035579905221   11.57511350428630   -0.42312768975954
H         8.61396470747162   11.24939200586737    1.85235502508458
H         9.83611995004071    4.47073880827396   -0.97966829411265
H        10.96880919965934    2.55577458467567    3.40788828239778
H         9.15181494586454    3.70757675293949   -3.21387875567097
H        11.35090888799772    2.10824013153845    1.75137179993693
H         7.64668909310933    1.76625380163687   -3.44975227212395
H         6.83357957219044    0.59501552406164   -1.43510476342207
H         7.52428193469294    1.36431472341039    0.79648481539950
H         6.44729309197574    4.13848933359009    1.19566800474629
H         4.37537330431011    4.27477126165379    2.50821439387111
H         4.41429578542945    3.80723534197362    4.93183017782040
H         6.54013850805353    3.20016587566679    6.02655900864203
H         8.61403379994980    3.07938530361881    4.71511742848235

