64
CSD_code = ICEKOS | q = -1 | S = 0 | Stoichiometry = C27H30N3NiO3(1-) | MND = 4
Ni        5.53977574548229   23.27986540215202    2.46298511222612
O         6.44025402253753   26.61732894384032    4.48533933078727
O         2.44257126114799   20.95083206781257    3.43439088529587
O         6.51031735666348   22.77384465919434    1.04279333296437
H         7.24884269877004   23.35552700380297    0.83265844531104
N         6.51023999766437   24.91868971682803    2.92864566505610
N         4.53051301318130   23.74055472245466    3.84242420997492
N         4.31230668900743   21.77518087001152    2.36724903170727
C         6.01822985916504   25.57117369323888    3.98633272980363
C         4.81208422762354   24.85282705022399    4.52048383491729
C         4.03701907539682   25.25346189161032    5.59868729423701
H         4.29869308651096   26.16057288242258    6.12158885458004
C         2.95101699194003   24.47092860005776    5.96489831564994
H         2.32886529102902   24.75847848795369    6.80156113585460
C         2.67008296688692   23.31667836043677    5.24676872438490
H         1.83755373713092   22.67406198660171    5.48840226431909
C         3.48985466322072   22.97932781219733    4.18030670443815
C         3.34416414996611   21.77852362333211    3.28743359378018
C         4.34394740270661   20.73069331761329    1.42715124811482
C         3.61078943756931   20.84955580040449    0.24070140263417
C         3.64148899135528   19.80503780043284   -0.66833986510399
H         3.07923266511964   19.86546356077365   -1.58882693718546
C         4.39154870328305   18.67124271097873   -0.41049783835725
H         4.40105329111017   17.85861069495804   -1.12591305256013
C         5.14077536957028   18.57523892948317    0.74877627806429
H         5.73339914079022   17.68841922040551    0.92028406914325
C         5.13122757772133   19.60112830461600    1.67925045400067
C         5.93910960187709   19.59253731197337    2.94821084802558
H         6.41421923234677   20.58120414798665    3.02152483048679
H         5.25300356170288   19.50367288730795    3.79710280833398
C         7.00730368576804   18.51189968393462    3.04049849533619
H         7.59249144016658   18.64700875054378    3.94907874981456
H         7.68042015821945   18.57133236391147    2.18811002117874
H         6.56266028285119   17.51842775422713    3.06989925487030
C         2.85234287506447   22.13088660202552    0.02395136676854
H         3.53853806102805   22.94927577007877    0.28538913399793
H         2.02340500145455   22.16791232504928    0.73850347855351
C         2.31850395924353   22.34763947024107   -1.38520518303900
H         1.86158964845466   23.33352767270157   -1.46087509697143
H         1.56277586407094   21.60576483695293   -1.63806530095539
H         3.12667942134413   22.28812995575067   -2.11109190145356
C         7.66989692674832   25.40601420589621    2.30323854683843
C         7.56286175020803   26.06787824220376    1.07272744043874
C         8.71226012948308   26.51053941755244    0.43760664563527
H         8.62828990372915   27.02125896626746   -0.51298850353926
C         9.95661227635504   26.30824842834066    1.00549582067422
H        10.84759252782998   26.66273128275364    0.50464463625939
C        10.05804572482957   25.64361322951141    2.21521360735599
H        11.03284859064475   25.47802451420007    2.65592417647799
C         8.93046015853976   25.18293194678454    2.87492032662513
C         9.05141750227117   24.41520485522075    4.16261695028005
H        10.06099220848139   24.53723718777278    4.56606537882002
H         8.34730382550619   24.82149239215922    4.89133733445578
C         8.76306019054873   22.92782338265364    3.94879424242536
H         8.82074491117652   22.38554769417777    4.89134746028508
H         9.47856624870212   22.49809152142774    3.25012486718199
H         7.75677056884520   22.79032387185171    3.53034664320197
C         6.20535703480948   26.29789271902673    0.47174145382214
H         6.28901906188866   26.38706358805272   -0.61471193211590
H         5.56732203691586   25.43256780370260    0.70087410348721
C         5.56605930643605   27.56304394071528    1.04531045775412
H         4.55088644688583   27.68599496145533    0.67067267170286
H         6.14943355194761   28.44034866941421    0.76813504118946
H         5.53450891108405   27.50865953234383    2.13039590175998

