35
CSD_code = ICEKIK | q = 0 | S = 0 | Stoichiometry = C12H14Br6Si2Zr | MND = 12
Zr        0.44976380501763    7.66948434996097    5.22277724536522
Br        2.47065355015631    6.23238376556738    5.92810394343781
Br        2.28347622392577    9.19600236156154    4.24767657169329
Br       -0.32643588512483    4.53463627053920    7.23494116094881
Br       -1.30301614398675    6.04586868389440   10.29153562373922
Br       -0.74426016836081   10.75396972877332    3.35102360517529
Br       -2.06781481094795    9.19269331111233    0.45473463879190
Si        0.28763163570282    6.17063530414873    8.70304894706218
Si       -0.26619125376749    9.14512061214876    1.80379664045619
C        -0.02457116510425    7.68189223421427    7.66695752448583
C        -1.25422435945392    7.91757080964830    6.98580346949093
C        -1.17738094452964    9.17893645504843    6.36573419230043
C         0.09578976348817    9.73065504776165    6.65205806528074
C         0.80581743365665    8.81226019902123    7.44428208551375
C        -0.35968346123243    7.62432201895670    2.86836788541027
C         0.54515979443816    6.53456931661764    2.97032724416705
C        -0.00393018296376    5.58783554578912    3.85205295276575
C        -1.24857505642528    6.08149176360429    4.31505980348250
C        -1.46968919075439    7.33528117909024    3.71451208080344
C         1.95455802621728    5.82069390527728    9.51077679874369
C         1.25182333288133    9.57360709804002    0.77155441403895
H        -2.14560387173705    7.30449423761987    7.06917896519323
H        -1.99453644147665    9.70899115275097    5.89548253155362
H         0.42285073157873   10.72713820056648    6.38224455739870
H         1.79175044713960    8.96776413119220    7.87215593428878
H         1.46764894082492    6.42274067696495    2.40838101467894
H         0.40340027807300    4.60871769431277    4.07139525976211
H        -1.96644772706621    5.51644730871179    4.89404175351155
H        -2.39138023444783    7.90624132010373    3.75797901744395
H         2.74625510386789    5.68732553247057    8.78045522584737
H         1.89071259078672    4.91639228529839   10.11132114964302
H         2.23272249835446    6.63671474017718   10.17178723160775
H         2.14114009146501    9.70377535351357    1.37977256581707
H         1.07685385248553   10.49737933765921    0.22521970167644
H         1.44573279735483    8.79126806789712    0.04326019839758

