80
CSD_code = ICELEJ | q = -1 | S = 0 | Stoichiometry = C43H30N3NiO3(1-) | MND = 4
Ni        7.59691519880316   21.84248628587268   17.82107003541241
O         9.30940949840175   25.24791379622434   16.65708434464094
O         9.09804172473057   19.51984289170612   20.69298294801086
O         6.07041286647656   21.27119272104490   17.04682662508531
H         5.70533816245877   21.85837750398516   16.37702689830267
N         7.78817941624997   23.53808247006386   16.89354755597130
N         9.09496539132498   22.34741006976161   18.61941503902701
N         7.80007968995465   20.28605849849600   18.95161507496544
C         8.91846811368059   24.20008068996801   17.17216403253239
C         9.66837801932880   23.49609348005308   18.26437507744130
C        10.84513238153144   23.92474843524803   18.86000049730660
H        11.28458307098878   24.85693863281955   18.54007982698871
C        11.41548031010367   23.13507270335051   19.84857696793143
H        12.33115833636558   23.44558624576537   20.33306286137795
C        10.80222254913396   21.94326399679334   20.20959655709127
H        11.20346817948421   21.29614091645483   20.97415198368880
C         9.63227422589213   21.57473064064963   19.56274452644757
C         8.81507661601067   20.34170101823895   19.82040120520870
C         6.80617028124702   19.31808931391241   19.10619098694438
C         6.65478137628309   18.30534681716119   18.15095712512736
C         5.62727534173303   17.38192404951526   18.28363121124593
H         5.51512371275181   16.60707006364938   17.53654184963582
C         4.77218963020533   17.43065768875890   19.36990667093519
H         3.98356531719778   16.69733265734710   19.47372005924929
C         4.92253940725506   18.42598108338372   20.31929581238971
H         4.24136107823683   18.48196918277728   21.15829170164833
C         5.91823431273816   19.38480561776773   20.19173596769368
C         6.03624812736266   20.47674736304890   21.17309131017806
C         6.11471245242261   21.80473182239534   20.75588819731368
H         6.06176761365756   22.04491558901796   19.69110269261339
C         6.25135218911678   22.82073295373618   21.68246409594537
H         6.32176107429953   23.84402392102095   21.34335478477108
C         6.29771404246961   22.53097601496245   23.03678657630552
H         6.41075577772417   23.32784791891016   23.75987100862326
C         6.20274033087532   21.21662764965475   23.46055260129284
H         6.23997712996736   20.98474032579121   24.51695439321741
C         6.07241427887498   20.19698023662776   22.53549803383848
H         6.02454125270947   19.16881350507225   22.86520825328613
C         7.58318904706103   18.23808090375665   17.01010578290353
C         7.10137733201193   18.25500225733970   15.70572634430218
H         6.03903756576829   18.35405576481964   15.54044800726702
C         7.97367961261632   18.18210699600615   14.63518627572924
H         7.59161541682359   18.21156523310601   13.62359840618503
C         9.33664991494598   18.07410312915439   14.85326128848794
H        10.01750203940880   18.01424907735945   14.01462251731888
C         9.82415136917063   18.05491352195925   16.14984293784851
H        10.88895507849480   17.97107287901670   16.32595189666989
C         8.95599007181698   18.14397255030274   17.22249863748434
H         9.33646680557557   18.12528529657480   18.23336235505014
C         7.02951325973485   23.92850159642082   15.78701035030439
C         5.75338459229028   24.48167471435069   15.96583883667922
C         4.97638652396908   24.79322024835276   14.85809806107214
H         3.99145423417731   25.21499224872872   15.00805242883973
C         5.46417588061108   24.59678739155909   13.57873022781842
H         4.85798395634786   24.85604724427638   12.72151102299580
C         6.72904144623168   24.06435403962982   13.39818055381622
H         7.10724550945594   23.89419353194442   12.39905982416153
C         7.51416055498913   23.71000880253347   14.48655426704804
C         8.84329209045465   23.10503566700284   14.29006528445395
C         9.76640259040368   23.71839978334681   13.44881651483538
H         9.49623346517077   24.63838939843854   12.94999683172862
C        11.02829349812088   23.18054139717137   13.27651956638928
H        11.74020523165142   23.67378798055397   12.62792645748504
C        11.38577844734459   22.02179277115744   13.94422706121961
H        12.37770103061441   21.60820946875323   13.82085325309289
C        10.46963944508912   21.39745516654801   14.77484118806320
H        10.73784609539994   20.49169058937563   15.29806818754279
C         9.20401210155822   21.92705326964261   14.94243383205777
H         8.49074235025305   21.41037756075297   15.58949483861379
C         5.24831919664605   24.71662902830322   17.33043042304626
C         5.97898943628027   25.49597847004410   18.22322864643268
H         6.91730804340487   25.92692279710678   17.90624142530918
C         5.49780408902953   25.73288101514143   19.49738982668729
H         6.06906282420337   26.34737885490147   20.18081101738296
C         4.29081027908797   25.18568857168284   19.90111795894500
H         3.92036091625804   25.36343986642155   20.90153811602138
C         3.56495858211373   24.40079382649857   19.02195696913580
H         2.62925234039976   23.96085967775306   19.33795179154495
C         4.03612039675883   24.17289572862945   17.74202924658688
H         3.47419886020469   23.55087691257944   17.06005615176021

