84
CSD_code = ICEROX | q = 0 | S = 0 | Stoichiometry = C36H44Cl2OTi | MND = 8
Ti       -4.10149567946123    4.20690218233998   -4.18240506357438
Cl       -4.18573105504180    6.11684225355240   -5.27871114986232
Cl       -3.83458802128246    5.27725652236103   -2.29525789368468
O        -2.57708323952524    3.67283106721727   -4.61872494076961
C        -1.30550838050066    3.36166510245960   -4.87174182131506
C        -0.44745634734611    3.09253916487296   -3.78939187445005
C         0.85524865011599    2.65815949390271   -4.04538314940214
C         1.27149622370653    2.64465524857288   -5.37152220270030
C         0.48432152419702    3.01211055758639   -6.45851074960132
C        -0.85502246994940    3.31590665194084   -6.20531819633545
C        -1.03085685407011    3.35937906994696   -2.45097257414331
C        -0.75014493776751    4.55983807488170   -1.80374825113574
C        -1.26226533225535    4.80998035400966   -0.54285231436245
C        -2.08063473694089    3.87913795678944    0.07345769906874
C        -2.41093342333328    2.70895621563733   -0.58807607273418
C        -1.89879040077643    2.45282058888713   -1.84928678293376
C         1.81867495308477    2.20234034814391   -2.94722821813727
C         1.13959781714263    1.16949683537952   -2.03713756393461
C         2.28534443945608    3.40262108676009   -2.11245715682044
C         3.07522980425504    1.52878622667319   -3.51995805761147
C         1.12150693609289    3.05004754593046   -7.85022873879379
C         2.65530070221135    3.13023316418240   -7.76936703353534
C         0.76426780574446    1.77071539488872   -8.61954210549694
C         0.66164362666732    4.27798674025675   -8.64761641941665
C        -1.88034455225109    3.64354166563528   -7.22529075670217
C        -2.27707545819426    4.96720165066343   -7.40091792633182
C        -3.21968058166566    5.29327639021169   -8.35942373809217
C        -3.78092464929880    4.30281949791569   -9.14837740961126
C        -3.41708458402160    2.98076402966372   -8.95578033063092
C        -2.48231434475633    2.64959103462883   -7.98925169086902
C        -5.22026927117630    2.38848292468083   -5.04503388486363
C        -5.93604085777370    3.56667323654659   -5.40433790860271
C        -6.40616898082063    4.17549154226235   -4.20243127659143
C        -5.99935607511620    3.37526912370230   -3.10901854949187
C        -5.24670609035943    2.27870983590650   -3.62299080443715
C        -4.71821917589596    1.30314696923902   -5.95383056698520
C        -6.31397398928094    4.01280441131123   -6.78636690815282
C        -7.27123179420227    5.40007623024517   -4.12309390434467
C        -6.41989355317208    3.53881019276465   -1.67863029563542
C        -4.87115022061502    1.04641689418657   -2.85307878458263
H         2.27990764622185    2.34485323681918   -5.57169077903455
H        -0.13399246909524    5.29862378898825   -2.29784869994835
H        -1.03069679015832    5.73980506538026   -0.04509624816424
H        -2.47584826357604    4.07432209587552    1.05901327921672
H        -3.05745762607543    1.98542350614097   -0.11028233342056
H        -2.11991303586826    1.52202894244691   -2.35489469741565
H         0.34797253516685    1.61636483643783   -1.44647034485405
H         1.87047007935512    0.74574716418258   -1.35147139044596
H         0.71966692952189    0.36081987468647   -2.63200693456177
H         2.66415118257440    4.18975939509629   -2.76112741171270
H         3.08503472753756    3.09565212496947   -1.44130354457800
H         1.47484803524315    3.80298088777059   -1.51270975321486
H         2.81633104465986    0.69663813069197   -4.17074214338182
H         3.67086571066841    1.13663964294821   -2.69801267366555
H         3.69805716119436    2.23512554697802   -4.06341298195234
H         3.05538008135419    3.31813391887268   -8.76355024144146
H         3.09374425455221    2.19910311492408   -7.41905924780301
H         2.96990126411976    3.94393473133177   -7.12023045366771
H        -0.29122098276848    1.74913175740420   -8.86906102072618
H         1.00297603087713    0.89088190426765   -8.02509446675247
H         1.33286518887174    1.72581604333907   -9.54616813904405
H         1.27391079111785    4.38453108931408   -9.54088396592687
H         0.76968282408391    5.18036412495966   -8.05045133291328
H        -0.37099560819143    4.19282421626659   -8.96504591682707
H        -1.81258028212564    5.74341921988589   -6.80795777950525
H        -3.51169381814337    6.32384030120461   -8.49095703201580
H        -4.50636729592968    4.55884044702929   -9.90673265583791
H        -3.86204239659573    2.20238332657468   -9.56093021903785
H        -2.21372382888352    1.61472614012885   -7.82848578650560
H        -3.68466046118541    1.03973915743263   -5.72040295691134
H        -4.76615564067961    1.61136550949631   -6.99477233532470
H        -5.33208326081879    0.40702894809696   -5.83110042950858
H        -5.84698848036072    3.38535779492806   -7.54175055952769
H        -6.00403530108465    5.04371585675426   -6.96296868008265
H        -7.39767285561645    3.95470953490158   -6.90785312216765
H        -6.99739461416058    6.01061978300803   -3.26098269898714
H        -8.32264336726341    5.11765417192736   -4.02366397820257
H        -7.15901201604633    6.00686387621679   -5.02024700847476
H        -6.71257525515889    4.56669814496433   -1.47471738088292
H        -5.60880879079218    3.27750402142427   -0.99950064229740
H        -7.27244000605266    2.88786335986355   -1.46742252023734
H        -5.72005348966836    0.35648695465522   -2.83693024255915
H        -4.61773822431137    1.28789976370580   -1.82337157238385
H        -4.03205875233163    0.52959507091747   -3.31691558974387

