15
CSD_code = ICESEO | q = -1 | S = 0 | Stoichiometry = C5H5Cl4Ti(1-) | MND = 9
Ti        9.28699602891212    6.60591550349395    1.91850032276511
Cl        8.29352635299036    8.66481806325960    1.96578323103591
Cl        8.48507647824508    6.60018760596970   -0.22394844017929
Cl        8.61114136672108    4.42185984781346    1.86008510378541
Cl        8.44261489146457    6.48894004523010    4.04661964119777
C        11.44311337385625    5.63933102975212    1.51269510514550
C        11.36302200622555    6.01679168977605    2.87056337025499
C        11.25953671341065    7.42480800376707    2.92516283092081
C        11.27602551374413    7.91346786859152    1.60113637279394
C        11.39017289108270    6.81086023406752    0.73058385328657
H        11.59406106024471    4.63385859707436    1.14130067491352
H        11.44332634596232    5.35179018800787    3.72161936297910
H        11.24664248273663    8.02676034840336    3.82536510923704
H        11.27614847419693    8.95578879126414    1.30931748328153
H        11.49119602020854    6.86012218353667   -0.34558402141736

