51
CSD_code = ICETOB | q = 0 | S = 0 | Stoichiometry = C16H31ClIrOP | MND = 6
C         1.93888991511873    8.09548672572089    4.40502683618719
H         1.21319865302828    7.81909160386601    5.16586481505809
C         1.51807587698080    8.10465455130838    3.08634336883118
H         0.49426167295566    7.79988954849316    2.88520083268532
C         2.14808635979325    8.96700289905949    2.01634230514137
H         1.37920544396702    9.26291019238892    1.30062811973778
H         2.52958402719585    9.88005892034952    2.47550987764626
C         3.27299773289794    8.23331294468786    1.26337954790105
H         4.02091702748778    8.95163292640066    0.90954011378002
H         2.85206100900415    7.74886855316739    0.37993440059212
C         3.95124296498631    7.16543490133779    2.09341288976750
H         4.48458057601178    6.44687197243777    1.47251083757514
C         4.43975858907918    7.37449494637748    3.39991496494611
H         5.30754632754959    6.78634935755181    3.70080712803779
C         4.38183437143773    8.72388889960407    4.09193389570923
H         4.44431669715239    9.51365760989952    3.34210886663743
H         5.25242165214592    8.83056586566589    4.74215169984726
C         3.10806039939975    8.88553843025577    4.94050768761181
H         2.83003948608572    9.94259385468982    5.00838663691511
H         3.31135233485732    8.53981578199071    5.95592775784321
C         2.88558894394403    3.02816786177979    1.89075169586738
C         1.42540558672774    2.66691657735381    2.13969736914793
H         0.98666628505902    2.27083002140647    1.22458348862441
H         0.85829224444778    3.54327878250951    2.44126704440165
H         1.32110891501750    1.91328564364027    2.91354171457111
C         3.71910497248683    1.76829390269439    1.68051750404436
H         3.57860315141280    1.06386436350480    2.49649774019634
H         4.77510206669916    2.01078784311374    1.59503993052034
H         3.40508448364922    1.27755125591894    0.75988205231919
C         2.95572776499412    3.91216232097628    0.64121575437296
H         3.98646329735389    4.15865505945816    0.39695134134373
H         2.40026945485565    4.83518878135465    0.80909402356517
H         2.51645061663295    3.39587241444799   -0.21076826839133
C         3.81660831153087    3.23565828704216    4.89237593660858
C         4.04061177426883    4.36761614475424    5.89988311078774
H         4.19435365545057    3.96331820216297    6.89921846613984
H         3.16917566068640    5.02127488782220    5.92422391049531
H         4.91570404011351    4.96260991542021    5.63749293496808
C         5.03792826644205    2.31822538436826    4.88752489553863
H         5.95297019786376    2.87011894784110    4.68393572906846
H         4.94481674617852    1.53031794395688    4.14674736200382
H         5.13694755452881    1.85259688764926    5.86746134528687
C         2.57258424952163    2.45330323046544    5.29497228800551
H         2.63911663778763    2.17191432623127    6.34552850620964
H         2.47654087411469    1.54125541007346    4.71145354556222
H         1.68203114912963    3.06148538530380    5.15920216029052
Cl        0.72317085342411    5.23816622548359    4.28062956637780
Ir        2.62609395550955    6.26948557923224    3.46867496908714
O         5.10176580004383    4.15059030111689    2.67758775225528
H         5.62689975137567    4.85469741784657    3.06100496558396
P         3.57478162160671    4.14629020981113    3.24217858269187

