63
CSD_code = ICETAN | q = 1 | S = 0 | Stoichiometry = C26H28N5O2RuS(1+) | MND = 6
C         9.27305413916189    4.18891753183746   14.18952985867973
H         8.35354754908718    3.82295030395434   14.62718994392792
C         9.66788868021595    5.50174256596994   14.36258565946994
H         9.05524457372550    6.17704656562751   14.93662816572576
C        10.85508909003166    5.92988045740756   13.78163099993136
H        11.18748003936295    6.94960340770931   13.89144520737896
C        11.60028944979907    5.02234617175798   13.05186714730106
H        12.51941855345077    5.32731816794006   12.57928998046813
C        11.14089992016674    3.71459457757797   12.91393405060255
C        11.81706476927435    2.67080704982273   12.14666202457221
C        11.60599560662596    0.50017202593927   11.36490367721570
H        10.97456146785797   -0.37917783526342   11.30674284855257
C        12.86814126043383    0.52941229060106   10.80304122108903
H        13.25018961903085   -0.33506884265874   10.28555314515276
C        13.62598918515618    1.69037960620680   10.91576579694925
H        14.61207912271840    1.74756583681810   10.48405284646939
C        13.09605011917622    2.76920676816935   11.60016415856184
H        13.66820565645845    3.67467037728267   11.71652052740420
C         6.40909571254780    1.90297325529361   13.65154210084167
H         6.42591577278765    2.75120732906951   12.97865171225361
C         5.20892810606827    1.43537998833798   14.16139800270893
H         4.28721430111017    1.92049185411287   13.88613121710154
C         5.22178539383931    0.33740666214363   15.00752464645871
H         4.30520152660373   -0.06985310202487   15.40410196433533
C         6.44187229961572   -0.22283118001651   15.34146853560579
H         6.48220588052064   -1.06997004335944   16.00548000922044
C         7.61208552263351    0.30575854976259   14.80020038515700
C         8.95385896494345   -0.16935025489578   15.14169117290836
C        11.21647415610996    0.15550961970862   14.80539363634376
H        11.99497578224545    0.69844462793666   14.28182761687231
C        11.54738848064257   -0.78568155852452   15.76067427061616
H        12.58207010465035   -0.98905210800906   15.98287962562180
C        10.52574568711347   -1.45941019737494   16.41824740709131
H        10.74676909115509   -2.21033935993324   17.15965150917434
C         9.21758701021323   -1.13709895837293   16.11075777208673
H         8.40799129372268   -1.63171345581553   16.62059321842682
C         7.59849902987245    0.02593464505781   11.16703246245136
C         6.77783307864106   -1.15240842385221   10.70470131869630
H         6.63243101538795   -1.84568587660122   11.52964806348214
H         7.31849164304231   -1.67112124538752    9.91450814496148
H         5.82495554301748   -0.80989833462298   10.31569830991364
C         8.85547159787388    2.88647009636879    9.34645861793121
C         7.59696349097148    3.27003673533480    8.59278934421962
H         7.83930914276898    3.57497972754167    7.57673978640380
H         7.10093418568980    4.09263167898248    9.10228170461796
H         6.91393040816502    2.42494849483846    8.56115227525665
C         9.54010576609627    1.67579249748773    8.74477765087254
H         8.84917800959953    0.83596424999042    8.70875463354574
H        10.41389896386513    1.38706552788794    9.32819573165243
H         9.86505249342132    1.89614899175660    7.72953243874223
C         9.79473738398602    4.06702360445282    9.52648352351394
H        10.72230048621739    3.76087961127644   10.00999534708108
H         9.31238614075114    4.82677579797973   10.13956984603837
H        10.03982148789978    4.50693728833422    8.56174273276272
N         9.98001042189569    3.30968589312527   13.48265441293312
N        11.08319079608785    1.54205775255680   12.01127210260828
N         7.58288669413390    1.34671926834842   13.93710378255360
N         9.95628828833194    0.45242804759044   14.48302334981028
N         7.27667741637243    1.18964712670549   10.68240505061981
O         7.48821898690077    3.59061479427846   11.48639462558440
O         8.55012363749104   -0.21287462786147   11.97787746116239
S         8.26946505929443    2.43804830452380   11.06274535577683
Ru        9.33278494397804    1.52915967918041   12.89913986453660

