39
CSD_code = ICETAL | q = 0 | S = 0 | Stoichiometry = C19H16AuI2P | MND = 2
Au       16.31266762754165   -1.37475063782882   14.40803509468787
I        18.22608093156560   -0.98748414831570   16.05584330154685
I        16.79924790862602   -0.35799032381465   11.00336875651644
P        14.55567094120589   -1.71050531994223   13.03156713705214
C        13.98440072819546   -0.22732286987058   12.15282086631937
C        14.87361748087154    0.46512643061655   11.33118803243428
C        14.52304202917917    1.66071163054702   10.71200190395676
C        13.24195813600014    2.15300657546502   10.94092504974376
C        12.34371006710553    1.48116057540953   11.74991083197291
C        12.71176661311836    0.29827217457380   12.36104987998508
C        15.47485569967310    2.40802369768663    9.83718332866298
C        13.09736813291868   -2.22952258329055   13.97757650812140
C        12.86569852883074   -1.54828978300886   15.17221341541113
C        11.80296188340871   -1.90235497476356   15.97937722199033
C        10.97750018187612   -2.95336857473160   15.60883995913363
C        11.21617336396095   -3.64491359343647   14.43286745887271
C        12.27385568583462   -3.28870622657639   13.61404357148964
C        14.67663753581922   -2.96537830927215   11.72927726562408
C        13.92020178313727   -2.90080862108057   10.56278649202171
C        14.05409120765952   -3.89274913061395    9.60930007748713
C        14.93408853220748   -4.94394800891742    9.81515277356320
C        15.68604201758773   -5.00892155535278   10.97709640552232
C        15.56108153890726   -4.01882848707413   11.93386924839485
H        12.95054009964093    3.08191243722446   10.47400259176746
H        11.35415942225098    1.88208901370000   11.90839010437853
H        12.01383055702474   -0.22656837552851   12.99736281435463
H        13.52789521556694   -0.73872376633779   15.45767595032847
H        11.62365412475635   -1.36821953025573   16.90036032621574
H        10.15174698729266   -3.23815227454057   16.24328756788983
H        10.57786625055896   -4.46932329352848   14.15125934913449
H        12.46007009117700   -3.83340695138351   12.69877888574162
H        13.23512063421114   -2.07730903011537   10.40599811978646
H        13.47146838669639   -3.84420562397645    8.70110715913478
H        15.03677043007832   -5.71253781878888    9.06399348106075
H        16.37442152850958   -5.82552074678504   11.13402118691037
H        16.15273782102731   -4.04838662572869   12.84073821867683
H        16.37293094807058    2.67591394050776   10.39383426926831
H        15.78351882419124    1.79159113542388    8.99283256913650
H        15.01615012372543    3.31698957371312    9.45756282570420

