58
CSD_code = ICEVAP | q = -1 | S = 0 | Stoichiometry = C28H21MoO6P2(1-) | MND = 6
C         3.42865820420212    3.06071996444758    6.27818633813984
C         4.81255522076856    3.13111481767729    6.20797039094288
H         5.26546623352688    3.56011299067839    5.32367741960205
C         5.59605111808034    2.66246250787919    7.24683713436495
H         6.67492964570683    2.72530584836326    7.18541271281680
C         4.99693003218075    2.11676375197671    8.36874588872014
H         5.60499532705416    1.75087758083152    9.18585102586640
C         3.61455682061782    2.04199857425517    8.44524299309202
H         3.14607954641802    1.61553612714041    9.32270595627196
C         2.83336141965895    2.51368500060553    7.40793982954558
H         1.75495083802319    2.45496967223374    7.46890114261686
C         1.30860943309482    2.39346307421294    4.68763826290493
C         1.74176045586556    1.32864511436490    3.90779219931304
H         2.71883866712587    1.38994046270084    3.44902783360921
C         0.93548874695649    0.22328592329060    3.71324808024338
H         1.28054023675792   -0.60171757412121    3.10324984539414
C        -0.31741852256431    0.17160489577023    4.30237291930074
H        -0.95220335956373   -0.69224275122395    4.15368307165243
C        -0.75836909525929    1.23184935418257    5.07664229407753
H        -1.73941710847629    1.19600412448465    5.53189975869120
C         0.04920718206765    2.33941173809264    5.26645029308809
H        -0.30274568473009    3.17251385769769    5.86162548394373
C         0.80839274987031    7.56556832359860    6.39812424564981
C        -0.04205955458579    5.57467071316058    4.55482994834800
C         0.65525386264013    5.02887861583150    7.23371292598225
C         3.12959828581561    6.09029723853740    6.76024719481175
O         3.46270670122355    6.19883263803321    2.89057169399859
H         3.43599497270745    5.20411225148939    3.16747794473830
O         3.36579726368925    3.80549003604203    3.70026805234613
O         0.39805603782608    8.53801493856820    6.85926105141652
O        -0.92498199577216    5.36580053134893    3.85265400127280
O         0.15846098924138    4.60535281297535    8.18071461560175
O         4.10360975789553    6.18841472640239    7.35604499787554
C         1.74200468236622    8.18930227091326    2.85230855224159
C         2.38647563301890    8.65700853827281    1.71265588529812
H         3.38025475126285    8.29469312224257    1.48897379686031
C         1.75858564052186    9.56176632495430    0.87825994246633
H         2.26206704288629    9.92180030949125   -0.00907733604268
C         0.48286113996714   10.01152705681356    1.18096871995127
H        -0.00906562282779   10.72128150180266    0.52945998810488
C        -0.16213516836159    9.54980588562227    2.31585427721153
H        -1.15847960467695    9.89868036213670    2.55047846959361
C         0.46470036439891    8.63938337789209    3.14962802257558
H        -0.03701332994028    8.26918129371328    4.03484822864038
C         3.85243213124581    8.19512083286871    4.60169715250795
C         3.43837024822336    9.39987011536640    5.15717283408870
H         2.39011777731094    9.66758300442014    5.12221265574286
C         4.35843524743771   10.24355173990828    5.74891951607253
H         4.03334743781202   11.18107477527647    6.17941551084428
C         5.69744142052928    9.88724265578231    5.79784624938558
H         6.41550873744102   10.54717888154731    6.26575299980101
C         6.11300280711652    8.68362701665814    5.25473493146922
H         7.15610012117272    8.40091991447189    5.30114682651575
C         5.19282422461576    7.83870730528085    4.66066597354383
H         5.50638807907807    6.89200278476512    4.24090657503277
Mo        1.49574600930229    5.88930695758302    5.71593202755223
P         2.62832230544085    7.01425967917200    3.94028114575833
P         2.46215349655370    3.81008641154900    4.90964950854460

