60
CSD_code = ICEWOD | q = 0 | S = 0 | Stoichiometry = C24H32N2OZn | MND = 4
Zn        0.18709907946550   13.84695226994710    0.09346376525875
N        -1.70161643982448   14.17742005079136    1.25279517132506
N        -0.73893600932536   12.62714607299186   -1.56185980100456
O         0.48432730779331   12.38091182476371    1.22962749712138
C        -2.58309235187525   13.18918203845486    1.32694512256097
H        -2.69428464336379   12.58802586047989    0.43581870277203
C        -3.33031434645082   12.92335319842257    2.46237111822441
H        -4.02813331218390   12.10067185881770    2.47430041468633
C        -3.15302230086274   13.72622750839040    3.57745121605118
H        -3.71056036138275   13.54378902956387    4.48435509512210
C        -2.23908494267868   14.76483800773701    3.50228965237999
H        -2.06355766245624   15.41591836305179    4.34428529225865
C        -1.53671698623141   14.94557074113797    2.32248299365740
H        -0.81070357679363   15.74083960674702    2.22482620819834
C        -0.83769989203685   11.32854513748923   -1.30671947642597
H        -0.62771074436439   11.04275330255816   -0.28578825585447
C        -1.17040934921453   10.39703306202520   -2.27678033893839
H        -1.23732379976239    9.35053420683985   -2.02387293537639
C        -1.40596256593583   10.83764178992337   -3.56911287339077
H        -1.66179238188940   10.14015481125760   -4.35309195899951
C        -1.30342517865084   12.19454669023273   -3.83481947377098
H        -1.47765584341403   12.58267276375589   -4.82611209321604
C        -0.96727577728254   13.04950017280862   -2.79832285792177
H        -0.87596713056679   14.11476324970724   -2.95885552434460
C         1.09742199136169   15.58431468295570   -0.38495482175110
H         1.58028254038981   15.51041218293928   -1.36047494606024
H         0.35973506248451   16.38205389999953   -0.48354930401421
C         2.15721598074555   16.04094813471368    0.62104603433169
H         1.72970190729745   16.19444792234541    1.61038936698016
H         2.60829201386119   16.98389445168960    0.30134926065954
H         2.95222287984727   15.30442398474923    0.71380185778978
C         1.40269173837291   11.62043166071208    1.78656544108501
C         2.54433894807925   11.16570090786595    1.08796636692337
C         3.44377609446248   10.32443608670644    1.72056939097392
H         4.31224010355752    9.97417198522062    1.17926464922186
C         3.25867055348312    9.91668252930787    3.02787456532219
H         3.97263466238402    9.25820796729838    3.50174786206213
C         2.14869474038677   10.36349146402371    3.72159155825712
H         2.00114240414998   10.04897954185023    4.74596229826107
C         1.22584855158685   11.20203924966039    3.12728213220472
C         2.78544089423252   11.58751541945326   -0.34319945808037
H         1.99956722780485   12.30442157996779   -0.62288788544848
C         4.13178876111089   12.29483790659381   -0.50396479183253
H         4.20052860126925   13.13309678734301    0.18562014761573
H         4.24358792703144   12.67094025658881   -1.51992476293976
H         4.95531145118024   11.61511782130203   -0.29770038614414
C         2.69055510251922   10.39032592152691   -1.29200258134790
H         3.48422892484721    9.67606645574594   -1.08365813338097
H         2.78123349166965   10.71409441594845   -2.32842890146456
H         1.73544601740443    9.88306471587115   -1.16993790921410
C         0.01312363453912   11.68968900132377    3.88620299821819
H        -0.54456728137784   12.33754391330564    3.20349358770760
C        -0.89558686198044   10.52896495420932    4.29394915924481
H        -1.18744786851364    9.95350699141221    3.41815361440414
H        -1.79644717226876   10.90262529240169    4.77999330049137
H        -0.38378128969985    9.86340358782205    4.98496625255134
C         0.41618358411118   12.51484915699821    5.10908112192677
H         0.96461536066750   11.90428681310382    5.82337647790280
H        -0.46715592536628   12.91561747851926    5.60572414476892
H         1.05258445752705   13.34480326059395    4.80823563238899

