61
CSD_code = ICEXOE | q = 0 | S = 0 | Stoichiometry = C24H30N4O2Zn | MND = 4
Zn        3.95656841208367    7.35649602597302   10.23582116396539
N         4.54763638113383    8.32961425511962   11.91662124485743
N         5.62494270098134    7.92744886201874   13.78450126352896
O         2.44833886910872    6.43323700882031   10.62794007246691
C         4.66163978684726    7.52081815865065   12.95006955644284
H         4.03898339120515    6.66454372600769   13.11433096143434
C         6.16906725041559    9.05512393864389   13.24559993841497
H         6.97721270481484    9.57759447829807   13.71326803564049
C         5.49236176821970    9.29404174508260   12.08830338949479
H         5.61422068301498   10.08915674213394   11.38175131962392
C         6.07230609821426    7.25355102549167   14.96974319711561
H         6.31282761576449    7.98127960358621   15.74443189270808
H         6.96179620473976    6.66142226885574   14.74190554617407
H         5.28769534139010    6.58936202929967   15.32695924466579
C         1.45741587119351    6.31634350670979    9.76057644288423
C         1.46634500167823    5.29469333829545    8.78611096684183
C         0.41923769460234    5.19229438565513    7.88675695766775
H         0.43385087259246    4.39707064452366    7.15122380404082
C        -0.64226978336027    6.08172986451393    7.91645303166052
H        -1.45287839526066    5.99042356188296    7.20653426988005
C        -0.66155077948617    7.07907090830697    8.87563883554651
H        -1.49170172761465    7.77253180924548    8.91267304342270
C         0.36317519006994    7.20645461211859    9.79637744934479
C         2.60600905735419    4.31975123708822    8.75791840552168
H         3.54687642978353    4.82767312380852    8.97088960777914
H         2.66972635118934    3.81796869679907    7.79367882639299
H         2.46741541039510    3.56337200371496    9.53111957127029
C         0.32468146458250    8.27517256347455   10.84863604635655
H        -0.24865082307859    9.13679318757481   10.51104620301593
H         1.33869106181060    8.58326655056837   11.10191878113872
H        -0.13622749830777    7.88891379940762   11.75850610307653
N         3.36552255116741    8.32962516173191    8.55503317677029
C         3.25138048194699    7.52080517711733    7.52161864018304
N         2.28804689649829    7.92748327233083    6.68724552085975
C         1.74405002892572    9.05521670862028    7.22615156344127
H         0.93590242924840    9.57772735616165    6.75853248964799
C         2.42085131057601    9.29411441693735    8.38339564204268
H         2.29911058793678   10.08926047834320    9.08993243681269
C         1.84056562755038    7.25359915002366    5.50203963982968
H         1.59980031975656    7.98135160759998    4.72745092899891
H         0.95120022122798    6.66132728232166    5.72999631854519
H         2.62520597010838    6.58954768946408    5.14463105418186
H         3.87395925171307    6.66447683660476    7.35734011549207
O         5.46477516889747    6.43319869786071    9.84369950086583
C         6.45568721873649    6.31633530142346   10.71108099439707
C         6.44671527719481    5.29476227830295   11.68562632204467
C         7.49381428304893    5.19239731057833   12.58499414653053
H         7.47916342734404    4.39723732766451   13.32059554817872
C         8.55535325606753    6.08179209219451   12.55523348804969
H         9.36595256330503    5.99051504094671   13.26516654815050
C         8.57467529400622    7.07905767492900   11.59596986446840
H         9.40484960396555    7.77248803989649   11.55888745343900
C         7.54995758922598    7.20640693524381   10.67521758726332
C         7.58848328659850    8.27505130052629    9.62288539250432
H         8.16184632955821    9.13667523110935    9.96041467431374
H         6.57448184447318    8.58316173114826    9.36958884869724
H         8.04937349988442    7.88871774042672    8.71303765714008
C         5.30701259564605    4.31986665501536   11.71389888436765
H         4.36618311798672    4.82778799206082   11.50076142080894
H         5.24319740805160    3.81825777904487   12.67822296695373
H         5.44563995299884    3.56334207274215   10.94084600265500

