59
CSD_code = ICEXIY | q = 0 | S = 0 | Stoichiometry = C26H28N2O2Zn | MND = 4
Zn       10.81137013890723    0.92709516296961   10.08097367096552
N        10.23862808496436    1.96367457983829    8.36282843258475
O         9.23018453528969    0.15557826047388   10.50656089181992
C        10.61820491627114    1.34597892636761    7.24500074999315
H        11.55508775147196    0.81021199275914    7.30334662699476
C         9.87339945118203    1.37777848918409    6.08116631073805
H        10.22256954036590    0.85874233282063    5.20270663811266
C         8.67304294081330    2.07314086435365    6.07316098793958
H         8.05759418695553    2.10325302364542    5.18691863946828
C         8.28653692126327    2.73368590876940    7.22585824570743
H         7.36669279687720    3.29355174958312    7.26785331958329
C         9.09546424566881    2.64678040183570    8.34624472358458
H         8.83453766491430    3.15992809753901    9.25959759678809
C         8.19547224504512    0.18697571096200    9.67829976615563
C         7.10855213434190    1.04520851051639    9.94248215347385
C         6.04105689744917    1.09480212986213    9.06221857186980
H         5.21223997783850    1.75673533538178    9.27619163329506
C         6.02534899168828    0.31983077987357    7.91712930170985
H         5.19187205200207    0.37500928471529    7.23203915395534
C         7.08050884311290   -0.54086261543865    7.66422652844111
H         7.06540156100656   -1.16206603717233    6.77830292933369
C         8.15727148234437   -0.62814260813948    8.52754206455909
C         9.28126800255307   -1.58534677510196    8.26671654784869
H         9.31279755282464   -1.87452691589008    7.21793492397727
H         9.15039562022406   -2.48373906768132    8.87140319243696
H        10.24006889633939   -1.14543387908867    8.55082370965844
C         7.12263072014335    1.88060300168596   11.18951821377921
H         6.46798129998748    2.74463279624580   11.08978574860794
H         8.13750270046934    2.21223487534544   11.41020405777910
H         6.78285527197637    1.28806223465890   12.03985480935946
N        11.38418350773886    1.96338071109033   11.79923682154792
C        11.00461367103448    1.34564672889102   12.91704021007580
H        10.06775573091419    0.80983746046154   12.85867522836099
C        11.74940791193547    1.37744279882421   14.08088709920669
H        11.40024454862932    0.85837077214082   14.95932971979186
C        12.94974811660697    2.07282695460035   14.08891750392138
H        13.56518875149281    2.10293916046454   14.97516466519246
C        13.33622872099016    2.73344339770449   12.93624911054757
H        14.25604327085739    3.29335907838895   12.89427704189624
C        12.52730746973461    2.64655248843897   11.81585876359892
H        12.78821879002890    3.15974760788430   10.90252731136834
O        12.39243675736375    0.15525990952878    9.65536387926574
C        13.42716851752806    0.18685750624522   10.48359976703127
C        14.51405540318586    1.04505375188576   10.21917692745882
C        15.58154592933397    1.09492014995173   11.09941721643871
H        16.41018872282683    1.75710340145605   10.88546083400120
C        15.59731553985555    0.32017742877859   12.24466986640763
H        16.43069145853345    0.37572998705300   12.92985291847788
C        14.54227060436749   -0.54059765605076   12.49771641048952
H        14.55744136898594   -1.16161826381714   13.38376395570977
C        13.46549905589072   -0.62813237010850   11.63443422056685
C        12.34161100861457   -1.58543816788290   11.89538580285152
H        12.31003543362741   -1.87439557992741   12.94423267803701
H        12.47259172877842   -2.48395463248057   11.29089246956300
H        11.38279586002073   -1.14565095402412   11.61111987582193
C        14.49976773847206    1.88016689607683    8.97197661480551
H        15.15498126184348    2.74383504456023    9.07111458084237
H        13.48495177660925    2.21235380470987    8.75179194722431
H        14.83867391990454    1.28720603430996    8.12157641890398

