49
CSD_code = ICEYUK | q = 0 | S = 0 | Stoichiometry = C16H29OS2Ta | MND = 10
Ta        2.01104550711270    2.42867559353515    9.96255994300321
S         1.05542906520580    1.01328073229113   11.80629729272671
S         1.71917323581662    4.56400184325599   11.24612446449403
O         3.77935092024149    2.53019944658495   12.22182089724315
C         2.07889755676072    1.13334605886786   13.30835008955857
C         3.55245131026804    1.35971253054156   12.98649099890534
C         3.69987579041062    3.73870504388963   12.96569637857602
C         3.33367146726049    4.87530314712670   12.02550285553155
C         3.39518817785181    0.64807805698095    9.51747856773764
C         3.76927921793879    3.51344098498654    8.95048912147331
C         0.07579825424904    3.73485927779450    8.35619340679538
C        -0.93503917613489    3.66730755831810    9.30716210797720
C        -1.20163009695173    2.29632148547019    9.59449263172375
C        -0.35317397045837    1.50687669363729    8.82525199402348
C         0.51891246658609    2.38444443341113    8.06376271483642
C         0.57374967817900    4.98475751440340    7.70351950887473
C        -1.59806918573619    4.85750603682248    9.91606262123683
C        -2.20645084887005    1.75862855007514   10.55713379936550
C        -0.39983175058323    0.01520210166628    8.72611571644845
C         1.10953738502294    1.99005059916887    6.73648153603213
H         1.66906589702488    1.94841524119338   13.90805051276120
H         1.96060551641953    0.19809954311150   13.85471065572645
H         3.91845808734910    0.53936085789527   12.36431236145410
H         4.13666409606701    1.39898013242330   13.91674212198487
H         4.67500687789348    3.93503903053239   13.43758250241771
H         2.93737204076860    3.66406203381696   13.74941860551272
H         4.07612053635027    4.97250875420987   11.23491082725303
H         3.25254125478697    5.80954161897721   12.57979630089629
H         2.95922446272177   -0.28156060450653    9.88044228192712
H         4.38690228017400    0.73700701014144    9.95580536765102
H         3.53939769064269    0.53773766876860    8.44313418397010
H         3.56267589690016    4.57765599373594    8.84053934513663
H         3.94590121509056    3.12034825273549    7.94999712630973
H         4.71238943263501    3.42014488895119    9.48589063997118
H         0.75576589902619    5.75876032725304    8.44868556186209
H        -0.17152386141375    5.36498059867603    7.00186480704141
H         1.49534083460686    4.80420713465819    7.15501848333522
H        -1.86896474955397    5.57797674051790    9.14511200032992
H        -0.91235873571931    5.34940170743800   10.60937431259700
H        -2.49489441764133    4.57827342984888   10.46204189304162
H        -1.69677900447777    1.25338102370574   11.38016418757734
H        -2.85161167079851    1.02914088198582   10.06740528492914
H        -2.82502807691404    2.54970335854223   10.97129359578964
H         0.50768945796874   -0.38057732522175    8.27404013652876
H        -1.24977897533749   -0.29576058688218    8.11495449046779
H        -0.51706605175172   -0.42879228797285    9.71409985651761
H         1.53922588264055    0.99027981035517    6.77727521470776
H         1.88713476527485    2.68667542128999    6.42739848111265
H         0.33235841512036    1.99121165498662    5.96975221460817

