43
CSD_code = ICEYOE | q = 0 | S = 0 | Stoichiometry = C14H23Cl2S3Ta | MND = 10
Ta        4.38599268406162    1.83365412550571   25.26742879855177
Cl        6.10914277829813    2.78509683598129   26.43250919899787
Cl        5.47325085369555    2.46813038784348   23.29190704569853
S         3.22039096378170    0.10861338981492   23.90957703175710
S         6.35567009175215   -0.49572443200590   25.01300421451363
S         3.82940241957840    0.45383362751941   27.25306943294749
C         4.53942467202498   -0.61299304415018   22.87793858589520
C         5.52225149832693   -1.44655565175339   23.68152823921232
C         5.77264085013859   -1.37954041892926   26.50302992940892
C         4.28634555262824   -1.23983183182783   26.77363909379945
C         2.61123233344928    3.27873873754639   26.08579537864291
C         3.08243193311201    3.99798852033537   24.91416445308003
C         2.25896761114985    3.62472597095099   23.83066295353380
C         1.26735806944617    2.73039223427658   24.29591268711075
C         1.45578779928776    2.52893071450897   25.66166903850866
C         2.80393984029905    3.73300610433724   27.50360861712768
C         4.00187964722340    5.17947784283984   24.91488252796258
C         2.47923133891159    4.08174535232843   22.43204153908809
C         0.24260934564659    2.05730157023392   23.44669408833020
C         0.64206972134478    1.68755411161566   26.58008501561311
H         4.04535453904415   -1.24651519870400   22.14047733750037
H         5.04426737289175    0.21444341062718   22.37636744249084
H         6.31637840058351   -1.80972505587609   23.02834206696065
H         5.02205570893840   -2.28980717656385   24.15449341799899
H         6.05276987931557   -2.42703873194486   26.38449213283135
H         6.34949782589725   -0.94130423909963   27.31814481159006
H         4.00817706640770   -1.88237439744656   27.60961138558590
H         3.68420550762206   -1.50139146681700   25.89853348654146
H         3.78499973338295    4.18211218635481   27.64657643814378
H         2.71074336242374    2.88960501005446   28.18654015762836
H         2.04490181877826    4.47212595168178   27.76551272720219
H         3.41987945470566    6.10310499899498   24.93144254676252
H         4.61840108381490    5.18695002127270   24.01682115339383
H         4.65793682059380    5.17348986672141   25.78305847892883
H         1.73149896903667    3.67750829082735   21.75673033548003
H         3.46402403627227    3.74805705940684   22.09529249485713
H         2.46113296146818    5.17010839662099   22.37330412935085
H        -0.66074608869265    1.85372029359653   24.01619768071756
H         0.63847256411760    1.10736203752699   23.08126269167381
H        -0.02095368932846    2.67240215934368   22.58984161781422
H         0.12654955495423    2.31088281187795   27.31184696568938
H         1.29129884779677    1.00341396937177   27.12973645593076
H        -0.09116573418527    1.10262565519951   26.03362617514824

