85
CSD_code = ICEYEV | q = 0 | S = 0 | Stoichiometry = C32H46N4O2Zn | MND = 4
Zn        2.79687197762096    1.32074441216004    8.54909821602597
N         3.41904776044187    3.24271044372846    8.29438049243165
N         4.22919859484842    4.56491278369563    6.74268820750043
N         1.56841815351210    0.91497764714344   10.11623940276196
N         1.08678021964920   -0.30258726057456   11.87595046003262
O         1.82431822727607    1.12821709507091    7.03520156626421
O         4.32857702668489    0.41165262846979    8.89461111116883
C         1.93548173111604    1.94771189938223    6.00362892408882
C         2.95288329901443    1.76522502626781    5.03978366812522
C         3.02434710717591    2.62360825781626    3.95629586933830
H         3.78604680366329    2.47781719989464    3.20347943333117
C         2.12551135521704    3.66677069505064    3.80930072514596
H         2.19355525386110    4.32660022049037    2.95487126939291
C         1.12500871697638    3.84768138498116    4.74827785154772
H         0.42013099866943    4.65473496775677    4.61356876291277
C         1.01519372321696    3.00827895825977    5.84139081270779
C         3.88385011960156    0.58872577494710    5.21189373756264
H         4.05275369581194    0.45878588985404    6.28927708378414
C         3.18480736106866   -0.67704047829836    4.70623598007603
H         2.26293768539245   -0.82839565843731    5.26104744106905
H         3.82430724999338   -1.54674620472507    4.84330435021002
H         2.94453458265613   -0.57991029536175    3.64833296243875
C         5.23715572992531    0.75500859441923    4.52443824521269
H         5.69666938471370    1.70912445950296    4.77857571774834
H         5.13557938664616    0.69772532939544    3.44245134080911
H         5.90778968095117   -0.04214527047856    4.83934723081343
C        -0.08517294271027    3.13610504805942    6.86793148208991
H         0.34997967206459    2.85351314660714    7.83583424415758
C        -1.19018440078778    2.12545421993815    6.54422199215852
H        -0.76721371156334    1.12501087891159    6.50196901416826
H        -1.63548488063081    2.35218622122258    5.57717727335293
H        -1.97174013063231    2.15062107886366    7.30273245026154
C        -0.66770568526441    4.54131261066003    6.98969474486533
H         0.12254116781654    5.27841309099450    7.11721316881124
H        -1.33106493084739    4.59264382490095    7.85168331512419
H        -1.24852000158382    4.79963117603973    6.10705020977864
C         4.51078923245730   -0.27024226548489   10.00951483411370
C         5.31597687245418    0.26195129521166   11.04192530353359
C         5.46185841969639   -0.43727121451615   12.22697882224762
H         6.06328935548079   -0.02243191035919   13.02381545416914
C         4.84945070089847   -1.66450996373917   12.41135416290843
H         4.97778997492755   -2.20301269640005   13.34041765002552
C         4.09092156060226   -2.21062380247681   11.38915770529572
H         3.63877928032449   -3.18067989340709   11.53624678104008
C         3.90741735678347   -1.53711854285065   10.19458752149564
C         5.97115014302817    1.60692322052295   10.82669196711436
H         5.90566017661258    1.81867859001947    9.75494670821838
C         7.44467398854524    1.60630403690396   11.23227529981837
H         7.96653174677837    0.77772115254902   10.75927507978081
H         7.55593834069189    1.51256711123362   12.31018823036153
H         7.91909139432261    2.53670624893271   10.92440309414350
C         5.20656710348034    2.70443751642194   11.57288276263683
H         4.19164457830371    2.78466080295891   11.18668311263831
H         5.69848634241679    3.66650120776428   11.43946894577236
H         5.16358523555166    2.48530285256566   12.63905067667394
C         3.10885348771613   -2.10769250042743    9.04772614217067
H         2.58119847890137   -1.27114796203081    8.56418738181356
C         4.07190515097133   -2.69594871978850    8.01204893190968
H         4.75995996216852   -1.92548453883671    7.67579477387433
H         3.52196080897049   -3.07458724121065    7.15297694861760
H         4.64618410965465   -3.51076434153087    8.45074524947411
C         2.07307229236016   -3.15048513715787    9.45864671878734
H         1.43509814343911   -2.77686877026565   10.25749992368153
H         2.55369021859912   -4.06781872615453    9.79271459771764
H         1.44266742574880   -3.39400687236177    8.60577889104125
C         4.30152582802687    3.36171919974318    7.32505387417458
H         5.00777039068905    2.60234848737246    7.05732515472090
C         3.23146857242306    5.25007301201761    7.36950238136780
H         2.95988800539800    6.24585624028336    7.08648905246269
C         2.73897199845987    4.41993908636074    8.33065388556081
H         1.95893428690963    4.59190434186299    9.04378515707028
C         4.98444067232594    5.00849367919787    5.60559513174376
H         5.97569240498293    4.55791649385125    5.62478887877319
H         5.08039660076690    6.09300779849854    5.62684893339030
H         4.47516954651501    4.70861878929536    4.68608231383273
C         1.97922026931157    0.51424337232684   11.30111618572193
H         2.90529975119412    0.79461597480981   11.76065414200747
C         0.04223640840296   -0.42777688761605   11.00475416005882
H        -0.81294183558099   -1.03370170751259   11.22277445695199
C         0.35411515967351    0.32898443060984    9.91707748835684
H        -0.19121308837987    0.48979795085851    9.01000941921860
C         1.22374251824950   -0.94539813434050   13.15204286314249
H         2.28231116285759   -1.03014071474059   13.39454012980066
H         0.78838370940590   -1.94316218178935   13.11047475781426
H         0.71670577534086   -0.37187796349491   13.93176920535389

