49
CSD_code = ICEZAR | q = 0 | S = 0 | Stoichiometry = C16H29S3Ta | MND = 10
Ta       10.93043977128471   11.93095739689176    2.87763669100064
S        12.75932546445731   12.81499960849107    4.38709754344288
S        13.38331151767869    9.80668444338874    2.96448888146853
S        12.36909854854582   12.44714822482992    0.88426636936251
C        13.57118529861200   11.42108185068148    5.23504553261633
C        14.39239178207420   10.54654141459557    4.30526056576700
C        14.22341623393652   10.47797076861137    1.49006495437157
C        14.06524493926066   11.97656910183678    1.31912576731891
C        10.32358237622137   10.62539969863527    4.65928685395510
C        10.11837428839680   10.16627995579895    1.67243423889712
C        10.19063861035370   14.66311693808449    3.08175821470029
C         9.88372288518683   14.72203327015704    4.42617132079830
C         8.80500944627028   13.81703065607778    4.69724675255042
C         8.43434212052950   13.20284726653594    3.51704260073687
C         9.34138612610547   13.65466012193960    2.46733574964749
C        11.18783288339299   15.52061646038190    2.36854903962661
C        10.58211588004073   15.56083764694265    5.44299393103970
C         8.21109413453200   13.61037176060677    6.05151055375811
C         7.25243245137019   12.31456008423925    3.28546650266851
C         8.92940029949435   13.71764902705713    1.02164191067143
H        14.22361733036368   11.86273472808952    5.99020999377926
H        12.79387331975590   10.83615597306401    5.72572149133109
H        14.82332277547642    9.71547737597877    4.86494082013839
H        15.18862073092115   11.11943930934981    3.83398559131088
H        15.27632182492325   10.20177260282910    1.56327320248839
H        13.76839675327670    9.94961212642172    0.65233047729690
H        14.70325674574895   12.31956258996175    0.50294837154084
H        14.32613508381669   12.51892941091409    2.23312117393054
H         9.26940130131773   10.36372287627438    4.58690353195424
H        10.44298650661476   11.15966055194157    5.60254026291259
H        10.86740939433796    9.68514872297816    4.74398639792103
H        10.75531583802415    9.28427942965850    1.69208244780809
H        10.01324221272523   10.46053038939245    0.62771349558958
H         9.13759368760247    9.85121085751647    2.02423434067641
H        11.43727991792141   15.11162224546903    1.39100222427647
H        12.10525776887265   15.60737918652617    2.95126329988013
H        10.78479888559415   16.52531831820857    2.22285720428133
H        11.52487982813384   15.08841429647112    5.73045403295482
H         9.97275190676447   15.68379351933846    6.33442316659530
H        10.81317525491411   16.54376481590955    5.03601162485922
H         7.66507948150699   14.49987299370007    6.36950149156997
H         8.99303514772019   13.41712135955611    6.78571873544131
H         7.52111776078884   12.77061897947371    6.05168551272038
H         7.01906230689542   11.72784835009549    4.17215781887229
H         7.42714052338257   11.62967175488017    2.45717190874727
H         6.37389300672913   12.91700312241228    3.04405424079733
H         8.25741078284171   14.56289605578443    0.85977926791785
H         8.40628662286076   12.81003028247638    0.72101211292423
H         9.79459224241380   13.84675207953537    0.37029178507644

