38
CSD_code = ICIBIH | q = 0 | S = 0 | Stoichiometry = C17H15I2N2PPt | MND = 4
Pt        5.51544548659489   11.30313158119555    2.89382922470208
I         5.85786861347531   12.08814679390364    0.45220233645819
I         6.62618396284658    8.97608349268120    2.51222125036132
P         4.96220548403487   10.50172902069295    4.90815868267223
N         4.65014271306435   13.07263091323048    3.62809619509945
N         4.30503828396716   11.90198500245681    5.62221965969001
H         3.87302873057298   11.89438797227680    6.53804392668963
C         4.56046385911618   14.21299675734989    2.93891191204505
H         4.94939574672122   14.20112600456839    1.93059978884426
C         3.99966329925372   15.36460145330854    3.44604995292074
H         3.95817259214353   16.25118293483042    2.83651061516842
C         3.49525701772818   15.34827321474558    4.74008173593664
H         3.04400886044263   16.22675974513670    5.17378719146482
C         3.58631521482244   14.18038797869152    5.46467498075996
H         3.21288701576291   14.11699309822131    6.47532243503931
C         4.17704722268294   13.05199142202968    4.88784981896746
C         6.01669363605625    9.84055354638715    6.21497126425649
C         6.67011418832165   10.69560016195005    7.09724953969377
H         6.50289882020678   11.76340371145893    7.03929768528105
C         7.53833212317272   10.17680999956704    8.03989762385073
H         8.04199199384504   10.83925164184865    8.72838994951927
C         7.77144849709671    8.81166167212227    8.09171835454047
H         8.45593844553686    8.41129578352069    8.82430095368762
C         7.13945103146510    7.96140586358932    7.19778968198526
H         7.33329938049847    6.90012324605897    7.22861211011760
C         6.26571199841942    8.47093329112841    6.25602931442945
H         5.78142625419725    7.81556004398544    5.54560585383708
C         3.53190069237616    9.38437922382157    4.84228186596012
C         3.03225948599258    8.74487111172129    5.97166327269182
H         3.53716149327744    8.85210450842948    6.92288731078580
C         1.89752951253913    7.96179518280666    5.86496531104930
H         1.50988990193055    7.45773950871012    6.73803470823373
C         1.26116503316893    7.81921930865084    4.64129750984658
H         0.37923821017828    7.20118324743264    4.56477063913496
C         1.75284496617742    8.46301330511945    3.51682531327092
H         1.25798065613657    8.34921606265915    2.56442352246613
C         2.88599071838509    9.24793745562793    3.61826361734217
H         3.29050885778847    9.75273473808477    2.74046489119930

