79
CSD_code = ICICOP | q = 1 | S = 0 | Stoichiometry = C38H34CuN2O2P2(1+) | MND = 4
Cu        4.22058195357648    4.97454569379970   11.28552361919607
P         4.99486918629160    4.36721581339024    9.25682634702091
P         3.76389380833633    2.79703176541294   11.85637120456112
O         2.14846900750515    4.17693943219025    9.89606906031204
O        -0.02327458681424    4.72370195355211    9.94075613041312
N         5.16856492424620    6.37758137055664   12.41970625906901
N         2.63644352262693    6.07817352609532   11.80294062632808
C         6.47172434358363    6.60430686846229   12.48384108168251
H         7.10456500085296    5.87250870324322   11.99932835500115
C         7.00514220321644    7.70552607309521   13.13023407176239
H         8.07205930260753    7.85170272661473   13.16894544012948
C         6.13370603860620    8.61023694747874   13.72304501049791
H         6.51135488940310    9.48369808249881   14.23164568480436
C         4.77108601284908    8.38235016542767   13.64425954861345
H         4.07439909434772    9.08528327696876   14.07102154300684
C         4.31447729691072    7.24494968534958   12.98129543283515
C         2.89478808693182    6.92112440180151   12.80849967755715
C         1.86907548668965    7.42265598689630   13.60736218039763
H         2.08750027792264    8.08048454644455   14.43275794995956
C         0.56205101198703    7.04636471925948   13.33872697809764
H        -0.24674685369028    7.41904777007532   13.94765783858013
C         0.30389195342551    6.18840202795274   12.27850221711405
H        -0.69761305222207    5.87984591965381   12.02922928801233
C         1.38014803882148    5.72317806210617   11.53347838084019
C         1.22321690335525    4.79651982513352   10.38081333147785
C        -0.25190948700262    3.85846750058939    8.83275642215025
H        -1.29629055628785    3.98500990675966    8.56169672210826
H        -0.05177206059041    2.82432698725687    9.11980573234121
H         0.39883416166104    4.13305468212183    7.99989693929646
C         4.49981695115583    2.04294945142439   13.34077221851320
C         5.53640673921428    2.74681322960104   13.94610951485508
H         5.82788098976242    3.70629728126133   13.53311354299000
C         6.17348623897457    2.22615666482634   15.05675124643550
H         6.97950420649242    2.77135364230241   15.52497470418961
C         5.76946671174281    1.00423665838893   15.57150578268011
H         6.26231224958531    0.59702435230446   16.44103745783287
C         4.73091354647027    0.30602930711874   14.97621012364498
H         4.41740389393249   -0.64412138855331   15.38177368253559
C         4.09308600915588    0.81994234480831   13.86133213118208
H         3.28103168143862    0.27741749305925   13.39788544659407
C         2.10231059924945    2.06612437570685   11.83566800477618
C         1.23534138343566    2.55344526302074   12.81357606101331
H         1.61549858719323    3.25482729317680   13.54772008346455
C        -0.08155154131284    2.13913932903057   12.85227135418084
H        -0.74532575925687    2.51442254538696   13.61682004532469
C        -0.54882048026552    1.24060349519142   11.90514767014461
H        -1.57754819659566    0.91540446577169   11.92986987452808
C         0.30536809081521    0.76159418363234   10.92548302029409
H        -0.05934854719390    0.06027440995947   10.18892404696613
C         1.62647360511886    1.17586638556657   10.88150830792560
H         2.27583095286041    0.80262251193043   10.10373397262164
C         6.75898350898570    4.46671445870545    8.81952044147870
C         7.65839951895529    3.41091646411737    8.90642935496598
H         7.32745094545943    2.42427043031221    9.19608310674957
C         8.99555906848232    3.61721235825971    8.61148508749251
H         9.68852991329526    2.79107448399064    8.66956584784725
C         9.44592508204427    4.87346478163988    8.24340941465650
H        10.48884492738942    5.02639079008493    8.01214197914429
C         8.55657805906583    5.93543625691463    8.17603378163804
H         8.90616771592945    6.91737774667806    7.89449700394204
C         7.22271615102843    5.73496235499709    8.47070623090797
H         6.51886965717728    6.55683099220415    8.42436378791582
C         4.21971942928139    5.01492785289491    7.74775974304161
C         3.38958521244219    6.12390475141387    7.85996172529845
H         3.24025838239504    6.57004752879605    8.83580036926266
C         2.76498875625681    6.63889644349662    6.73811302753539
H         2.11792967875529    7.49947308861238    6.82508462949033
C         2.97414101171545    6.05021307754108    5.50144015741301
H         2.48744744371403    6.45062863521974    4.62509475887364
C         3.81316501553272    4.95251921596614    5.38485156721662
H         3.98121801940444    4.50306310048973    4.41766767639987
C         4.43903997426489    4.43347091338467    6.50316246064605
H         5.10327658027565    3.58560273893690    6.41178133958739
C         4.74261100657873    1.92304919479062   10.55604333819597
H         5.78325602655182    2.00796697539978   10.89342816183821
H         4.48135517298034    0.85904684629935   10.54102018121379
C         4.58008395839222    2.56860816168258    9.17993772970503
H         3.53803727623578    2.51941694295591    8.85650174308202
H         5.20638868625934    2.06525569907468    8.43643398856877

