29
CSD_code = ICIDAZ | q = 0 | S = 0 | Stoichiometry = C10H10N4NiS4 | MND = 4
Ni       -0.51859356541608    2.28650108495846    1.78680947997205
S         1.02907261983082    0.74081877953039    1.92561621324688
S         1.00762273047425    3.77753151953536    1.84115326250775
N         0.86380989593566   -1.89646515525918    1.97175818210229
N         1.59041090234786    7.40651078898925    1.86098626373518
C         0.18957345965749   -0.72642510390530    1.87013781994035
C         0.10558825257927   -3.09790584926309    2.23140444848075
H        -0.18521238185016   -3.14971735055942    3.29024590169433
H         0.72442317689892   -3.96598095801172    1.99757197197068
C         2.28208491531225   -1.88982710610208    2.21659847432145
H         2.76255697764141   -1.19756756364844    1.52528391545239
H         2.67872805854398   -2.89018881458582    2.06059902911628
H         2.51131603830680   -1.56378113493555    3.23542811395454
C         0.16655725663826    5.29052324400069    1.81444522225999
C         0.93988575071777    6.46124020668059    1.84011833814805
C        -1.14495737731027   -3.09945805592719    1.35710352318106
N        -1.90226858652220   -1.89631355974526    1.61128248238112
C        -1.22728753860924   -0.72637597530056    1.70850105608645
S        -2.06611420373888    0.74102995570020    1.64776166204406
C        -1.20523346552481    5.29021355561209    1.77007351552156
S        -2.04537499512344    3.77689013557914    1.73621538801333
C        -1.97940070371622    6.46041010868115    1.75023602057245
N        -2.63015858165399    7.40573975094296    1.73421700966295
C        -3.32068786661246   -1.88963269458270    1.36732448274017
H        -3.80024320206280   -1.19454366120732    2.05646315494174
H        -3.71792784597299   -2.88915160630425    1.52714997881775
H        -3.55034025933729   -1.56704215998228    0.34749196489224
H        -0.85420654654912   -3.15632491346253    0.29851398419683
H        -1.76442291488391   -3.96600746742690    1.59490914004662

