81
CSD_code = ICIDIH | q = 0 | S = 0 | Stoichiometry = C33H43ClCoN3 | MND = 4
Co        5.12116788319119    4.80585038479884   12.25882041787048
Cl        6.46613692838713    4.81792570284180   10.68379298336819
N         4.07801094160530    4.81030662785366   13.65031811264290
C         3.74661743839541    5.98930856915745   14.23628999148761
C         2.94341546772418    6.01865585400501   15.37161947547538
H         2.68416942844859    6.95973794300018   15.82953151824176
C         2.48881507072127    4.81962140087920   15.90475383812349
H         1.86467310185711    4.82331110317723   16.78501979285701
C         2.84192788704641    3.61539958339008   15.30979931804981
H         2.50160799575371    2.67738201234887   15.71839348263417
C         3.64465749488951    3.63531439571577   14.17404485126886
C         4.35710805692465    7.07064813143252   13.51669535606193
N         5.07980890966901    6.66519891291968   12.50343025326140
C         4.16989585114234    8.49744898397396   13.91941638957064
H         3.10728022611393    8.73052388706327   13.97774107351957
H         4.64559655766467    9.16603452805947   13.20633332978532
H         4.60364354178097    8.66479963075198   14.90533742051035
C         4.13999653273459    2.54493234732674   13.38236082629112
N         4.87544058674919    2.93895814272827   12.37497747806701
C         3.83375274259545    1.11956087519573   13.71592811361925
H         2.76018443826827    0.93979497093748   13.66007935008684
H         4.15431057465242    0.90258863865063   14.73465016102641
H         4.34031124490587    0.44537575548453   13.02957523807294
C         5.76912572716052    7.61518436582437   11.71381249569922
C         5.19016091029060    8.06595668736504   10.52292171752682
C         5.87022415359361    9.01234279550268    9.77123101794672
H         5.43279631539014    9.38042060493187    8.85583895648953
C         7.10270818582567    9.48796195006159   10.17510277112580
H         7.61984988636018   10.22549425256463    9.57904241159564
C         7.68191453750087    9.00422085760678   11.33228483708456
H         8.65736412990326    9.36047971796187   11.62628630228667
C         7.02985809604490    8.06762053926496   12.12038047966031
C         3.85964947257764    7.52464243847900   10.05391735962356
H         3.55563482016706    6.71571140465038   10.73127053782585
C         3.99009815225418    6.92255766094911    8.65432040756117
H         3.05975711518110    6.43635925803102    8.36816654599004
H         4.78674345049202    6.18284852743162    8.64864214680936
H         4.21983976121900    7.68610401242996    7.91575289594958
C         2.78390287749781    8.61159124152800   10.09184234288789
H         2.67538571974296    9.01119959889920   11.09841328322887
H         1.82570288030856    8.20304373906928    9.77762031749701
H         3.04287294984169    9.43096622907663    9.42522700487771
C         7.70122170357092    7.50938151988212   13.35407323633279
H         7.00169626437704    6.84006492544363   13.86699279898040
C         8.10387124407758    8.61512448360751   14.33132138977921
H         8.49330655847591    8.17844170490782   15.24878650603461
H         7.24850590455783    9.23978902197287   14.58187727768002
H         8.87607420791512    9.25006709976871   13.90476763355186
C         8.91210366728157    6.67196050573995   12.93607518391101
H         9.36613608751027    6.20375803653512   13.80725641497013
H         9.65979634091797    7.28907414747688   12.44414990767498
H         8.59640176383971    5.89561255609660   12.24353974992064
C         5.39225856591805    1.99421549327293   11.46156971423384
C         6.73003925067478    1.60076368126028   11.56770059577841
C         7.22663899028112    0.68932091723014   10.64745276089950
H         8.25173616104284    0.36137812137586   10.72037352660719
C         6.42753323323726    0.20090640491942    9.63336508369652
H         6.83030766450772   -0.50056630097794    8.91753058608190
C         5.11203839937230    0.61393772990426    9.52633245970569
H         4.50743357322215    0.23286228827184    8.71926387757667
C         4.56595648010488    1.50209452849962   10.43937831285577
C         7.60825654620553    2.13982319740966   12.67313685452046
H         7.10105261008126    3.00367845469031   13.12524590599797
C         8.94997291855283    2.63456435667265   12.13436155586537
H         9.50164447832214    3.14126163214258   12.92362884354293
H         8.77880230754977    3.33667622489873   11.32257162698181
H         9.56063443259505    1.81408154929292   11.76652548318012
C         7.81097700450182    1.07565099002938   13.75435985212374
H         8.43088223427410    1.46838771978809   14.55764679501359
H         8.30250504934976    0.19941411871319   13.33653545467560
H         6.85711294186784    0.76427228668424   14.17548021285148
C         3.13568003334430    1.98504514776255   10.32287911942715
H         2.73267938712147    2.12437656476857   11.33211553701503
C         3.11872644770028    3.34649090072745    9.62193706858309
H         3.70355290084738    4.07229274522804   10.19439870695359
H         2.09886570783264    3.71573794229354    9.53260508021019
H         3.55563190604172    3.26696255928642    8.62942938978392
C         2.21740144652533    1.00161515497990    9.59819429437176
H         1.18290443023046    1.32219474332517    9.70600888950985
H         2.31241266355869    0.00139790168255   10.01612310994469
H         2.44343044996827    0.96200468106695    8.53572659958201

