82
CSD_code = ICIDON | q = 1 | S = 0 | Stoichiometry = C33H43CoN5(1+) | MND = 4
Co        0.95312550862859    2.60755712429312    3.35338602067679
N         0.90062125386205    4.00995176806151    4.45363306448381
C         1.00595068777551    5.24774148541485    3.94898045600655
C         0.97085659681390    6.36215894940117    4.78238298632644
H         1.05886433595422    7.35613902165458    4.37618715852346
C         0.81524199354907    6.16208848819478    6.14775764497561
H         0.78094331626232    7.00902450412044    6.81458037978130
C         0.70214235928893    4.87526848458082    6.65735480822511
H         0.57579242443299    4.70964980728899    7.71435785168436
C         0.75437172512729    3.80354546248065    5.77029999465257
C         1.11930049692865    5.19480015091732    2.49443005593796
N         1.11531321057335    3.98801850924763    2.02961897314054
C         1.23315485310033    6.43652194233621    1.68210927158847
H         2.10446311095894    7.00592634666829    2.00590193708816
H         0.35814823172931    7.06988397685803    1.82574714319952
H         1.33071428133465    6.20164367459462    0.62496548292099
C         0.68473811176978    2.37368816569253    6.05456549155641
N         0.79178185929814    1.63747285982308    4.99509113939332
C         0.52833894091045    1.86847241358988    7.44416611970458
H        -0.46881476462374    2.10810615331121    7.81451310664101
H         1.24951378751561    2.35044866621797    8.10262242605775
H         0.66537001320583    0.79051222762901    7.48298353090509
C         1.10193366598996    3.72833136381150    0.63991929174350
C         2.26869657318237    3.25885425558703    0.02822112461799
C         2.23268390880251    2.97934652529068   -1.33020938589160
H         3.12436683869122    2.64072376064489   -1.83082430053116
C         1.06207477530201    3.12580692707557   -2.04779023696094
H         1.04576621977859    2.90193461397203   -3.10278924041146
C        -0.09625373934341    3.54564877175647   -1.41802462519378
H        -1.00323858100998    3.62650238647486   -1.99260023530124
C        -0.10303851562462    3.86445267506371   -0.06914202352261
C         3.53808894208753    3.09477335475408    0.83228641967578
H         3.26443831195583    3.03246027761444    1.89928923296399
C         4.28442912839006    1.81130803573630    0.47134032150055
H         3.61132219149735    0.95743180785162    0.49847868067531
H         5.08913329716874    1.64213834601589    1.18233288286655
H         4.72543717592091    1.87535726678880   -0.51881120077519
C         4.44274617948109    4.31508256829358    0.64243300322304
H         5.35354212308197    4.20241419203687    1.22523833025379
H         3.94102575721608    5.22725191269892    0.95794867996980
H         4.71543937802863    4.41983739088228   -0.40478036876431
C        -1.37060773757577    4.26954623668436    0.65544800049716
H        -1.13484157195019    5.08349281020956    1.35021708167410
C        -2.46899353153639    4.77655766389320   -0.27760648735932
H        -3.28068888325437    5.19725350566937    0.31145841209333
H        -2.87832113546309    3.96887834062461   -0.87796704622426
H        -2.08948826861215    5.55272881007995   -0.93763803650521
C        -1.89309320557176    3.08436630355965    1.47601918045677
H        -2.83591980560444    3.34310817502808    1.95170610757351
H        -1.18001976505333    2.80218341305390    2.26690023937431
H        -2.05076280294810    2.22088002910965    0.83436096347536
C         0.76840454658862    0.22443204478862    5.08445097685424
C        -0.44544471523490   -0.45344254880135    5.25061751225762
C        -0.41518353978976   -1.83916420579017    5.31850542982533
H        -1.33737904953416   -2.38396790197028    5.43934366154164
C         0.77731490017673   -2.53139440959830    5.23540678083556
H         0.78143985885571   -3.60751352036717    5.30863166892714
C         1.96388624607679   -1.84885217249269    5.04161550389124
H         2.88557914310347   -2.40091635594905    4.96347517860536
C         1.98049159117084   -0.46596754998058    4.94603174001670
C        -1.76669573697638    0.28070567568003    5.25886488574082
H        -1.58366518011325    1.35919994676554    5.32057796223972
C        -2.49151503299330    0.00981890383073    3.93651975101641
H        -3.41985629257242    0.57388832532827    3.89405236770841
H        -2.72503646495595   -1.04650171436658    3.83740649798914
H        -1.86643957646323    0.30242145956951    3.09459471314813
C        -2.63998879602312   -0.11952293898371    6.44880990734211
H        -3.52110228990856    0.51627202659666    6.49152513632905
H        -2.09435871277899   -0.01873032652417    7.38458687195097
H        -2.97479444772378   -1.14854438786140    6.35950098266003
C         3.27257341338815    0.29178729322171    4.73944664863976
H         3.02879221365127    1.28658868009769    4.32527896066329
C         3.98095674313909    0.49711517605420    6.08112919003121
H         4.91379182180189    1.03622640189548    5.93540093837345
H         4.20688027136773   -0.46435408135314    6.53583715958853
H         3.35873999932939    1.06381132859792    6.77050286739396
C         4.19947348032203   -0.40348898298288    3.74380993303693
H         3.66161851730878   -0.65701008078342    2.83343511546549
H         4.62241884758750   -1.31115417125345    4.16388372772675
H         5.02370781364484    0.25761493121437    3.48776474033932
N         1.09720118458319    1.30466112360362    2.34790754138919
N         1.23879998552666    0.42581012913860    1.67893583980228

