59
CSD_code = ICIGOQ | q = 0 | S = 0 | Stoichiometry = C19H27AgB11P | MND = 7
Ag       11.77148189672511    9.69704101812302   10.57408058723902
P        13.20915391247583    9.28994024742801    8.63248510777565
B         8.43761094997893   11.05015846456593   12.74724855548200
H         7.49607052503337   11.66136137841231   12.38148232640003
B         8.57275591561954    9.33034915221273   12.31732997084345
H         7.72434284170119    8.82436848126742   11.66788741113937
B         9.23361603807924    8.46400202196917   13.72189653528509
H         8.80945214236895    7.39515950236655   13.98919066680823
B         9.51728367020148    9.64801018314336   15.00286962115734
H         9.26987753330908    9.35361643965358   16.11874751481254
B         9.02679116274521   11.24122050532003   14.40285819149382
H         8.46101406480707   11.97954655778777   15.12939563558069
B         9.76822715884345   10.49320780183203   11.75665411756308
H         9.83820734710767   10.80367511606576   10.56709465443558
B        10.26957726247397    8.86606678140067   12.36865052667056
H        10.70687250695073    7.98960972689437   11.62700869713984
B        10.87395860951370    9.06940561312835   14.02992112541413
H        11.72589153679952    8.37440833297236   14.46831461504507
B        10.74101750861650   10.80735770426441   14.46557371502689
H        11.49516206407980   11.32212140349599   15.21542706584754
B        10.07012760972346   11.68083551662616   13.04666489125013
H        10.36290918291827   12.80108379371690   12.80067100443867
B        11.20565243755751   10.33644387878893   12.83683861140002
H        12.36675475778680   10.54023028687491   12.43690434136906
C         8.22126826539973    9.82064653098284   13.90559935787016
H         7.21767194328902    9.65259628426270   14.27882056409047
C        14.81699294403210   10.14926174970281    8.64447815438280
C        14.85230781184379   11.40700901200513    9.24033414836592
H        13.94587520422127   11.81034713364655    9.68016313376865
C        16.03065494610492   12.12874994678305    9.27412419876329
H        16.05302493635006   13.10460534157087    9.73521834673535
C        17.18363351817072   11.59285892773530    8.72235516649936
H        18.10635157551214   12.15261059903843    8.75190458537200
C        17.15578287269756   10.33637842394239    8.13885509325871
H        18.05639303685456    9.91785986810656    7.71424555758925
C        15.97740079047255    9.61232248535419    8.09685816085164
H        15.95813527004585    8.63092893537838    7.64400771100320
C        12.54388166412265    9.70670054183057    6.98742997891265
C        11.22948565113738    9.31528607450149    6.74018328081822
H        10.67730563043958    8.79795445221927    7.51707267469968
C        10.64030752733151    9.58545404722106    5.52051552529773
H         9.62317913026791    9.27617008020174    5.33132076849216
C        11.35570827856068   10.26151961727670    4.54363168370308
H        10.89565076621733   10.47801580355804    3.59122139531629
C        12.65739915844419   10.66517963588763    4.79073048256613
H        13.21156721284594   11.19727237245905    4.03146468119274
C        13.25532810553796   10.39121744915209    6.00903334737483
H        14.27027296078839   10.71088988890726    6.19948217263259
C        13.70180470737883    7.54926706264460    8.40894911728695
C        13.85974854972461    6.94808122323933    7.16450457511523
H        13.67647301501311    7.51488981800262    6.26201928949456
C        14.24627607625474    5.62160488718838    7.08622039577637
H        14.36731761492644    5.15603411404284    6.11901911398844
C        14.47691165296682    4.89182539290185    8.24118343764774
H        14.77740228586858    3.85706282983943    8.17328280412772
C        14.31598476620811    5.48642230014319    9.48315334353459
H        14.48870148292779    4.91633473693546   10.38359962534109
C        13.92500744289442    6.80932793174819    9.56724256157745
H        13.78328456973036    7.28239459327267   10.53368007693700

