21
CSD_code = ICIHUX | q = 0 | S = 0 | Stoichiometry = C7H4NiO2S7 | MND = 4
Ni        5.88241432200713    1.46307684151061    4.62182237291956
S         7.42961388285537   -0.03613296354424    4.83485094849931
S         4.33631414312748   -0.03638499316459    4.40361407840992
S         7.44027483370195    2.97365573512008    4.77698437124797
S         4.33486521705428    2.97702269853396    4.41085122844424
S         7.35599569968174   -3.05679450903165    4.71741332866323
S         4.44128318275270   -3.05681474325918    4.30019127710617
S         5.91415509983861   -5.63593962014574    4.39866501254909
O         7.32533525604555    5.56049227280932    4.51867657983969
O         4.48950297560600    5.57309898649029    4.36704135036609
C         6.57149750060515   -1.50045498175985    4.66642665877538
C         5.20845833199430   -1.50040849648152    4.47187684412903
C         6.59133675726036    4.42437065082298    4.57089309612945
C         5.20646676787753    4.42866787842658    4.45041468824520
C         5.90440402614650   -4.01088073819615    4.46820848528748
C         6.60618645175343    6.68372856592871    4.03926971798961
C         5.22768647918330    6.73895814931235    4.69135464874616
H         7.20517448714407    7.55788952514125    4.29321048624853
H         6.49690768679915    6.61049346983324    2.94978035077919
H         4.64257667720648    7.58068695397463    4.32121556867650
H         5.33485022135886    6.81206931767895    5.78063890694821

