118
CSD_code = ICIHEK | q = 0 | S = 0 | Stoichiometry = C50H49AuF14N3P | MND = 2
Au        3.91540830578308    2.92219751659236    8.73780914320197
P         1.69182568893231    2.80896278414955    8.62980385014121
N         5.94154175231834    3.19640797777758    8.86332718908795
N         7.90582208752278    4.29513233459994    8.43869331102952
N         9.97746131088794    5.10329697750140    7.69488154512775
F         4.83959385977396    4.84300014261254    6.84591740411807
F         6.82523047843210    5.38287026742302    6.19183417424283
F         5.21641320617298    2.26565868607947    6.11056481825778
F         7.32935610880174    2.58317907760592    5.78326163464955
F         4.69374659665453    4.31429084182496    4.22190118497287
F         5.64483465262030    2.51601412389949    3.54500314735181
F         6.79556326468852    4.31717540227132    3.74805789421637
F         6.98785707139697    6.81878032804732    8.36847789106556
F         8.79619600875207    7.11609383984911    9.49647237291741
F         8.83356500641323    7.17498113183881    5.98778369641852
F        10.16775554965578    7.97258308811516    7.49046997113656
F         8.72787720214005    9.94625189255727    6.49749685601401
F         7.90464793099121    9.51957901768906    8.43276094951243
F         6.88225797182899    8.86343647496695    6.65835107872935
C         6.70020632557996    3.97757549178385    8.13402400601497
C         8.76966964664674    5.23881071932032    8.04168261366339
C         6.11715837021618    4.38385311318618    6.75953407476085
C         6.13562917827504    3.19571819154694    5.75942990306057
C         5.82118314633120    3.60757844008558    4.29241369418231
C         8.33774167642776    6.69377179298999    8.29066373411132
C         8.87939034049881    7.68835820062113    7.23034114528286
C         8.08296417434542    9.02460530801196    7.21037074214696
C         6.52001974023589    2.75581440588338   10.09536805195151
C         6.45379186981092    3.56557275925870   11.23066588205362
C         6.99545564138972    3.08258389052150   12.41404682579365
H         6.95093704079192    3.68813956413805   13.30595145668224
C         7.60050258786432    1.84200125462571   12.46555278100452
H         8.03308088492864    1.49001763850584   13.39060536268539
C         7.65125807270258    1.05129910555521   11.33387329113651
H         8.12514869583212    0.08310408705932   11.38294102169691
C         7.10344495178590    1.48802648992337   10.13628439890326
C         5.77062587248429    4.91388246374822   11.19868241654560
H         5.61334079173603    5.20561138939227   10.15625832318210
C         6.61758293778631    6.00055558359216   11.86105045744643
H         6.66239119998053    5.86520767764186   12.93871455624208
H         6.18785163407994    6.97912673437940   11.65935044184718
H         7.63051774035304    5.98476094679400   11.46829525888626
C         4.39871079418815    4.81203938466012   11.87416094273324
H         3.77494145295569    4.07290703156615   11.36872386665292
H         3.88693730635121    5.77155738121195   11.83820473196203
H         4.50806482803313    4.51378905216876   12.91443210740423
C         7.15193832923394    0.62401206545155    8.89834369385694
H         6.45029768352165    1.03942654118988    8.16776807285094
C         6.72195599998313   -0.81621200008133    9.18281613857782
H         7.44824272158547   -1.32924520584844    9.80733465456701
H         6.63613300916197   -1.36523838511216    8.24764790423267
H         5.75639397640751   -0.83548284973727    9.68521578601389
C         8.55611887154793    0.66624169411947    8.29264627327938
H         8.85187235040590    1.69187882486829    8.08858713693966
H         8.58588666582565    0.10881725043653    7.35947150774917
H         9.28160913727640    0.23432409333503    8.97775336004967
C        10.61706671672649    3.87173530330472    7.55379015987427
C        10.87994993386169    3.39733685237128    6.26312723861306
C        11.63270273042758    2.24253890361453    6.12302335091044
H        11.85102412043780    1.85972751059587    5.13874809049020
C        12.11643953675804    1.57479262933747    7.23213993805959
H        12.70986566030085    0.68042838627940    7.10745740909613
C        11.84526525095714    2.05079563161245    8.50134168983943
H        12.23223738520762    1.51703422081632    9.35459909224216
C        11.08594580232592    3.19535340283148    8.68927021417472
C        10.37345757861615    4.18053347178581    5.07427926199547
H         9.42286064150340    4.64753785535632    5.35335244044275
C        11.36893637598801    5.30143900535733    4.76050367354437
H        11.50108454635580    5.93413058842876    5.63385710974040
H        11.00179220887542    5.91192166263941    3.93896671490210
H        12.33409282783223    4.88035510881984    4.48564562752231
C        10.12475634214293    3.32093469165014    3.83654303475324
H        11.06100869212511    2.99028723522205    3.39323998597663
H         9.58677349695827    3.90448240692555    3.09266957411178
H         9.52710560230476    2.44812418221027    4.09068985488801
C        10.79000251585209    3.75631313546125   10.06221451540593
H         9.74520601417891    4.08404859462796   10.07245081925652
C        10.95310583064551    2.74175804195126   11.19131512638591
H        10.38109657617037    1.84115009923919   10.98244771728024
H        10.57951555865010    3.17155062056781   12.11855751509200
H        11.99847438572744    2.47934317584073   11.33855073849322
C        11.68391980930306    4.97545111634918   10.31321887388813
H        12.73109156431685    4.67850088700589   10.30755547981513
H        11.45155250290010    5.42358249641940   11.27696286343886
H        11.53185989088886    5.72223421393622    9.53796486091004
C         1.03999374610992    3.01981639782872    6.95255887649094
C         1.74523498366849    2.40367558794523    5.92217043185694
H         2.63621380420323    1.83556952379605    6.15626788198658
C         1.30859233788101    2.52888613564342    4.61724006204335
H         1.85779290280092    2.05512063357431    3.81784905075083
C         0.17162664379039    3.27126138926302    4.33780107837648
H        -0.16591704285626    3.37516646889592    3.31775987482993
C        -0.52930332660120    3.88707899320300    5.36214031095077
H        -1.41224288805806    4.46794090935097    5.14032789088652
C        -0.09932862870752    3.76636850695215    6.67170719263790
H        -0.63839998891747    4.25429713366708    7.47264835819819
C         0.92702530652784    1.28077534041934    9.23135384705471
C        -0.31398352996378    0.84499870921329    8.77660880133221
H        -0.84343528566575    1.41514326393455    8.02551910530188
C        -0.85780682000540   -0.31917177819152    9.28811484653317
H        -1.82025287746802   -0.66067211678675    8.93730404068461
C        -0.17043764119270   -1.04741837453204   10.24675378079922
H        -0.59967159863938   -1.95609334621270   10.64103067385772
C         1.06793315043212   -0.61677521991956   10.69601291870341
H         1.60428156209652   -1.18810250719608   11.43856412897449
C         1.62011249427052    0.54433429268191   10.18733286236308
H         2.59118585786268    0.88988818335914   10.52029176888387
C         0.91125190204159    4.13582583987267    9.58467934961858
C        -0.10727993000894    3.92991508298922   10.50683780765252
H        -0.49799004743867    2.93526962131058   10.67147552397285
C        -0.61348626994541    5.00737736782058   11.21413381309300
H        -1.40496678082832    4.85095132165670   11.93186464304125
C        -0.10634104513578    6.27930326652315   11.00683403854261
H        -0.50405374934104    7.11403192396929   11.56403362033726
C         0.91550859413578    6.48358863519599   10.09109354820841
H         1.31433040791152    7.47440081637888    9.93469994425014
C         1.42969450302207    5.41436376895899    9.38456107132540
H         2.23537945525813    5.55408076572606    8.67417115694407

