97
CSD_code = ICIHOU | q = 0 | S = 0 | Stoichiometry = C36H42AuF14N3S | MND = 2
Au        8.76387603282285   12.39924755641924    4.25055701696156
S         8.18728176374518   10.99970033395105    6.05049978759775
N         8.79872741839783   15.63098412215281    3.65372718869256
N         9.44886079511665   13.59399686205163    2.65966566232233
N        10.07507447924698   11.74181185222235    1.34966894196791
C         9.56275251354781   14.91667406273250    2.94103750203064
C         9.81896918480217   12.97239434780298    1.52013366943766
C        10.90354598414632   15.60390331935418    2.65525917549730
C        10.78081368881197   17.12825543579927    2.39120033030377
C        12.05090983821921   17.72260323980986    1.71578635133706
C         9.65353147730856   13.69254480505875    0.17676791682101
C        10.74327527876078   13.28519672372163   -0.85261938155458
C        10.88573141914474   14.31440914339077   -2.01040350793753
C         7.61400084576835   15.26798661238913    4.27127796763955
C         7.57271184622067   15.49173540746765    5.66261278447993
C         6.39303497825011   15.25072963266682    6.34841923053472
H         6.34873924621976   15.41639830143822    7.41399534251314
C         5.25716733869640   14.83362494661931    5.67652884587374
H         4.33564852922024   14.67426086895867    6.21810778971186
C         5.29169241857841   14.66029746353277    4.30575427977982
H         4.38831772856493   14.36894395812473    3.79443840161830
C         6.45435956850005   14.87350892582524    3.57782185452906
C         8.81685407567682   15.97932963529061    6.36558622553012
H         9.42479839460319   16.49095632050910    5.61323469701707
C         8.51292057467937   16.96900343491663    7.48964045667459
H         8.06289803523984   16.47471710986657    8.34816760610736
H         7.83934317076531   17.74679501191998    7.13892995112920
H         9.43676325801564   17.43745605263715    7.81974492548629
C         9.62753098415261   14.79748246670302    6.90500979299839
H        10.57516480579389   15.14428505988898    7.30879526183657
H         9.83750410041653   14.08524475865992    6.10571599872149
H         9.08157904439942   14.28063691560819    7.69366299859971
C         6.44996108379438   14.82360220634438    2.06874012626312
H         7.39457851927094   14.39133866691738    1.73596851395184
C         6.36773156549836   16.25706492854336    1.53229785427063
H         5.43758865833164   16.72312072164612    1.85206796179424
H         6.40406936418856   16.25064415282497    0.44598168451236
H         7.19970829850666   16.85124727811866    1.90013511406681
C         5.32509610635474   13.97859877845616    1.47309836551514
H         4.36323844394721   14.47531431462743    1.57745399311134
H         5.27240748492198   12.99959069900953    1.94534702814783
H         5.51521249699246   13.83342913557664    0.41245760494486
C        10.14234436582414   10.77165862352841    2.33188016503852
C        11.14688706815616   10.74188320220249    3.31590966471590
C        11.16626737175899    9.67089025572978    4.20178741571263
H        11.92993616932960    9.62817470808836    4.96278383002033
C        10.23343177138099    8.65636119913724    4.12414826215256
H        10.26244859043860    7.83986033419429    4.83029138881278
C         9.28223286961541    8.66565585542641    3.11652687466355
H         8.59006504751271    7.84117680525612    3.03552083038799
C         9.23046981452043    9.70279365330445    2.20217581319484
C        12.25330990304925   11.76883562130436    3.33995194091233
H        12.00203789219591   12.57911098863067    2.65167849470642
C        12.45630572382937   12.37027968267314    4.73029776269020
H        11.51648331670591   12.76396071760398    5.11641744961457
H        13.16992562195097   13.18844257011813    4.67804549116951
H        12.83226852862129   11.62954331364221    5.43142358769179
C        13.54659032257429   11.12558536259391    2.83155754014148
H        13.84608930115167   10.30109406008077    3.47479766385218
H        14.34509397242283   11.86297370879743    2.81171682644848
H        13.40221159555146   10.74575500721425    1.82305140649911
C         8.23200302686732    9.75339636727022    1.07012223608940
H         8.71796431264483   10.30077849814005    0.25543663155369
C         6.98726222407190   10.54590248433366    1.48240127692772
H         6.40259617531515    9.99213452603067    2.21669359999712
H         6.35920007293894   10.73368291833981    0.61536375755944
H         7.27330059973339   11.50562923805029    1.91149459734767
C         7.83406543988048    8.37243955711852    0.55419569286845
H         7.21057702370541    7.84186901329424    1.27132062383975
H         8.71803012533648    7.77462711795455    0.34768007626483
H         7.26711030943129    8.47803134784257   -0.36754333394985
C         6.89746877079135    9.95060191456103    5.29217822500242
H         7.24935764743184    9.63348729792027    4.31501307942035
H         6.77118866286183    9.08248876163751    5.93915325245545
C         5.65678873853308   10.82059179432213    5.27470903457695
H         5.76811005666291   11.61718174941348    4.53470215051682
H         4.77057349502081   10.23496026024033    5.03142922545062
C         5.56966148150857   11.41941604075622    6.67453714059923
H         4.83423032375960   12.22115061286245    6.71871294525973
H         5.28145948531724   10.64155683737471    7.38358610343884
C         6.95093867437744   11.96265536335617    7.02580335851803
H         7.19675904255600   11.82759822102741    8.07708193645038
H         7.05679129577163   13.01124118581946    6.75809580119237
F        11.67827520802815   15.46484333566934    3.76742780580934
F        11.62321086014146   15.02494627609158    1.66747377884647
F        10.60092645358178   17.76897929672223    3.56258905981228
F         9.72011497338234   17.42182379551566    1.62094257521653
F        12.13233949360916   17.37823931831212    0.43719498495193
F        13.16270311398186   17.31952731434727    2.32655651662261
F        12.02440238561495   19.05311319057796    1.77510263283893
F         8.45601628335486   13.32520810965458   -0.35627881812197
F         9.58420289859763   15.04034811291418    0.26500208937855
F        11.94642546267280   13.13389915597911   -0.27279318148120
F        10.42001160448997   12.09635789354999   -1.39613199527109
F         9.69982593781787   14.63529618229346   -2.52298973335330
F        11.62077527365185   13.80354651017315   -2.99662729421380
F        11.47736298041235   15.43034916141346   -1.60357155180175

