21
CSD_code = ICIJAF | q = 0 | S = 0 | Stoichiometry = C8H4N2NiO2S4 | MND = 4
Ni        5.44008888522402    2.30010026370256    3.30005042450139
S         3.61570045764105    2.92452959222804    2.26123257369210
S         4.28800862074170    1.48750081302285    4.97614504228322
S         6.56128310202343    2.99340454884061    1.61898738195764
S         7.22127022284841    1.73625720360141    4.33596501482558
O         1.12750604193695    2.71472212055894    2.95109739052261
O         1.72882724802154    1.22643919907537    5.28636911371358
N         9.98640659067692    3.28136214066101    0.29721496041678
N        10.88617156263359    1.60031060526345    4.00667095602052
C         2.39556567557199    2.41946444986633    3.30743367251059
C         2.69396217592234    1.73193966294587    4.48897380279351
C         8.20626105710903    2.67996066825144    2.02577010598118
C         8.50349371196342    2.11845482705175    3.24990538479805
C         0.16885158279423    2.51796785704383    3.97764933758341
C         0.43879416351651    1.20105184942998    4.69772812500733
C         9.19182134828378    3.01101489598139    1.07825064260093
C         9.81861114202284    1.83577986291001    3.66098055820771
H         0.22304510513115    3.35009608284614    4.69111230760625
H        -0.80425959297586    2.51539473844776    3.48669522998479
H         0.38019103641814    0.36858102464744    3.98491359409233
H        -0.26410013750036    1.03796759362604    5.51455438089975

