54
CSD_code = ICIKAJ | q = 0 | S = 0 | Stoichiometry = C27H12F10O3PRe | MND = 9
Re       12.05848369687875   10.03905250903254    2.29122392266064
P        12.30548858161329   11.32292774337123    5.52370206625813
F        15.12751824516130   12.56559448049434    5.46310274454929
F        16.24591676253801   14.25720220424982    7.26052390933053
F        14.78633233772519   15.14687256365525    9.38262907341610
F        12.20581221711626   14.31974746785442    9.70027749622529
F        11.10548442665204   12.61942353306374    7.87842120417552
F         9.59927710509504    9.96003466913225    5.70041446635398
F         7.14111609600362   11.00162908985419    5.23298024306466
F         6.88846978054847   13.63256977716828    4.57426559180142
F         9.10750858733402   15.20474683600373    4.36471953988945
F        11.57267920398120   14.11871214746505    4.80452391489531
O        13.47681956535444   11.06199018857321   -0.23832437234280
O         9.98102910858209   12.30301516194942    2.12062595394158
O        12.38299652730099   10.02342031989915    6.17884032029074
C        11.56657032109175    8.15563398306598    3.75182868817936
H        11.61066057405778    8.13064148680738    4.82756783709802
C        10.42681949858880    8.41472694103266    2.98840971165908
H         9.43790375842588    8.62299797931402    3.36356139191237
C        10.77273460479908    8.25286171475703    1.60490249595110
H        10.06909899208633    8.20978000992298    0.78596083368928
C        12.12773423683582    7.79078691752122    1.55580581144699
H        12.64100936593750    7.44209736206981    0.67263155628676
C        12.62208029147215    7.77888848963960    2.86877943099990
H        13.58036373367738    7.38473426888675    3.17155763353361
C        13.07009007108612   11.48119147182562    3.88955576533336
H        13.20266526771716   12.50831528269648    3.55600301623469
C        14.04287670438668   10.51116726503438    3.55973769119500
H        14.09187729541377    9.65849669093221    4.23662812206671
C        15.26391022573756   10.75407433091494    2.80605431668952
C        15.46844575452964   11.91387049989929    2.04937678873658
H        14.68407631155716   12.65168364054419    1.97770335917370
C        16.65767715075069   12.10983735699491    1.37891013510460
H        16.80226279817713   13.00844171363060    0.79891016274434
C        17.66532276639506   11.15858088841669    1.44241102519464
H        18.59342383850726   11.31627034922805    0.91433146642905
C        17.47565241738152   10.00416877984456    2.18369336292385
H        18.25640972726260    9.26003219345678    2.23639555378138
C        16.28691733615475    9.80225982363403    2.85676228666425
H        16.14783356922483    8.90189435893162    3.43828921403859
C        12.94679480445935   10.72912194288148    0.72482963134479
C        10.79560730594729   11.48758341510140    2.15514386729949
C        13.07841677832503   12.59799241781081    6.61448869044301
C        14.39567929158502   13.00669741132830    6.48637716657803
C        14.98026447508212   13.87011151371758    7.40906321862625
C        14.23728967460790   14.32313604737445    8.49607029329033
C        12.91894368391508   13.90149022369675    8.65671984880223
C        12.36464160212021   13.03842307401250    7.71885688517062
C        10.62662430186088   12.02710288084803    5.27474556668412
C         9.48819920901100   11.24357720128319    5.37928810730401
C         8.22304762852225   11.77411756002557    5.13913825447711
C         8.09180522398214   13.11646165452314    4.79627786484198
C         9.22653477005602   13.91933006082267    4.68715639377363
C        10.47480239738484   13.36018210580633    4.91935047979131

