66
CSD_code = ICILOX | q = 1 | S = 0 | Stoichiometry = C33H24N5O3Zn(1+) | MND = 6
C         1.32555639226839    1.88968733813037    2.22006079460885
H         0.95419575213757    2.75605672867841    2.74862318869627
C         0.73620895679045    0.63610094789000    2.40522847435018
H        -0.09651748014899    0.52998048583758    3.08170495780032
C         1.23816953041139   -0.44496922657188    1.72082209294028
H         0.81497227005444   -1.43079168050126    1.84346779486409
C         2.32421343471648   -0.25815110395396    0.84878494794361
C         2.91609375635371   -1.32165743940205    0.10712638280486
H         2.50212342329386   -2.31212706503941    0.21944516043689
C         3.97381508529173   -1.09954776294266   -0.71008358953681
H         4.42544184978098   -1.90866746781944   -1.26360047367247
C         4.52140791541754    0.20742112749655   -0.86170943376129
C         5.62273601679295    0.48901580450011   -1.68923775849309
H         6.09209824264882   -0.31059140086780   -2.24281469269811
C         6.08502583846613    1.78057113922236   -1.77400800493849
H         6.93104160168146    2.03086706609085   -2.39352981677411
C         5.44189207105329    2.78271013954438   -1.04086920263167
H         5.77906211258108    3.80918674350975   -1.08083632860678
C         3.94967565154987    1.28665088832741   -0.15344848894975
C         2.84140780959792    1.05076524483804    0.72501314045171
C         2.47756369089140    5.13451839781191   -1.28107927261624
H         2.80175388945050    4.25094352769355   -1.81235018609353
C         2.00240895397994    6.24851936259054   -1.97790252183080
H         1.95953573188760    6.22899810813240   -3.05498173400632
C         1.60393729744764    7.35735671198423   -1.27043555059577
H         1.23958098934602    8.24088612968804   -1.77303843244612
C         1.67821962082791    7.33651586538372    0.13259066700140
C         1.29781046853797    8.44369997160303    0.94530331559976
H         0.92932059498562    9.33193564625762    0.45511042347963
C         1.40427665127982    8.38834062178119    2.29471782128951
H         1.12472699105135    9.23167982393663    2.90760997988490
C         1.89065495462950    7.21684267516896    2.94415891630281
C         2.03020921288651    7.11530347073093    4.33923974759501
H         1.76494316554190    7.95474155668841    4.96456277261236
C         2.50816963034705    5.94656263975133    4.88180887562713
H         2.63422699672268    5.83605854375132    5.94678036796165
C         2.83512367312313    4.88730523639886    4.03047471407255
H         3.21284058931218    3.95366039088288    4.42373148965100
C         2.26115901223264    6.09530167267151    2.17043517030306
C         2.16502282920489    6.15832946527490    0.74135521888568
C         5.74528093310675    4.04983989768706    2.21609987136498
C         7.08628654593109    4.26612632321429    2.78451858798670
C         7.78597270154458    5.39774683919006    2.35629565742856
H         7.30244559705269    6.04629831390488    1.64163220156148
C         9.04787729387811    5.67808936401891    2.83047917198769
H         9.57433681613398    6.55616150683609    2.49041664580805
C         9.63526103010320    4.81888634922878    3.75043330063488
H        10.62419665317829    5.02814393849899    4.12889563501884
C         8.96736250195540    3.69491578223672    4.19030465832611
H         9.42585082798277    3.03040973030016    4.90340761458847
C         7.68683561042876    3.39726664560564    3.72007846786753
C         7.36513392116307    1.29047370980914    5.00700889431081
C         6.27566145987440    0.25048028432979    5.17568908494223
H         6.64177896396923   -0.54964394888072    5.81212174372147
H         5.98710823198995   -0.15577718224804    4.20876106754112
H         5.40202935850569    0.70375758030881    5.63949504758749
N         2.34120815669674    2.09176270795152    1.40984811634996
N         4.40843002945051    2.54313010207673   -0.26320307131487
N         2.55585284257668    5.08849002486845    0.03063461837199
N         2.71159460089141    4.95762809459410    2.72265056066631
N         6.98664091381327    2.27933804854912    4.13955915501818
H         6.06454179552796    2.21350214332561    3.70573894507584
O         5.29315942509822    4.85406743469110    1.36130777102528
O         5.01737398361343    3.06519423863728    2.55998256231615
O         8.42638985372047    1.23828915730287    5.57989912732426
Zn        3.61078477739223    3.75861258880733    1.25191363698356

