52
CSD_code = ICIPUH | q = 0 | S = 0 | Stoichiometry = C22H27AuN2 | MND = 2
C         3.87180400250589    4.51678780633461    3.07764813058592
H         4.59756698101545    3.79067765485615    2.70608309913060
H         4.41686983104003    5.46030714512149    3.14609147033200
H         3.15943732663768    4.65624893222375    2.26207744614088
C         2.11919630566950    3.40635840337875    6.57057049112817
C         0.76916266518484    3.34834279846240    8.35217992259289
H        -0.01860438863985    3.67800089370568    8.99842581957346
C         1.59931431369358    2.28219049796594    8.43233398753926
H         1.67983850057170    1.50575604193142    9.16547653880209
C         3.44235685592258    1.40472923140285    7.03470166107413
C         4.75127510789074    1.68408064849431    7.42364767755896
C         5.07526265216484    2.97863473130721    8.10281077133016
H         4.92952074406465    3.80216952921280    7.40202932293306
H         6.10793190895131    2.98888064774335    8.43979154023910
H         4.42404746047189    3.14739110743083    8.96034082002766
C         5.73510892298502    0.75115847964650    7.13782107816210
H         6.75472154193974    0.95608415517035    7.43042124677637
C         5.43993589818748   -0.43432210436811    6.47918439272333
C         6.52436222823079   -1.41565844664065    6.15665110913484
H         6.13138008220285   -2.42825092181943    6.10577882244212
H         7.31646024556036   -1.37878296867741    6.90074946517872
H         6.96133900154756   -1.17411837444858    5.18746000830528
C         4.12858892211575   -0.67958334776545    6.09602575412070
H         3.89063531683493   -1.59428906469124    5.57247884606479
C         3.11619443463799    0.22808220812514    6.36268703436874
C         1.70602041989113   -0.02001060432488    5.92169747525510
H         1.02326806002563   -0.01871220344902    6.77151222864562
H         1.62552893212955   -0.97664788982168    5.41336134176406
H         1.38935030680117    0.76631081576947    5.23606979204434
C         0.47907846176154    5.21006361397444    6.75002988494811
C         0.91861060122024    6.43730231894313    7.24151379473749
C         2.07158822379912    6.49634617639266    8.19635466019266
H         1.87755864760723    5.89561395385300    9.08513207821109
H         2.26370851511957    7.52049719252222    8.50402083379474
H         2.96822932486759    6.10349697775065    7.71562221601876
C         0.28484769628076    7.58883923021467    6.80048725570009
H         0.61965796596820    8.54673828696582    7.17151297754535
C        -0.75905669834437    7.53536437211206    5.88898729203541
C        -1.44554866946512    8.78366196686632    5.42634140390848
H        -2.45374913052396    8.83237691461250    5.83801258563754
H        -1.52834190252956    8.79253450878486    4.34133785767837
H        -0.90129308871461    9.66906346272214    5.74389831600069
C        -1.16674620709757    6.29763617099168    5.40817111431449
H        -1.97077909125188    6.24847983120914    4.68817219506222
C        -0.56020340415224    5.12435272827529    5.82441393104915
C        -0.97283727545759    3.79296500322444    5.27741634277051
H        -1.18355757358501    3.08576487721735    6.07957325731336
H        -0.16320999584089    3.38326143809189    4.67129376946668
H        -1.85753710673366    3.88997960419731    4.65444528107607
N         1.10440647361751    4.02048932073526    7.20493257622512
N         2.41681420789881    2.33869404621363    7.33293283085382
Au        2.99528544532130    3.96126220185147    4.83039025148632

