33
CSD_code = ICIRIX | q = 0 | S = 0 | Stoichiometry = C15H10Cl4CoN3 | MND = 6
Co        0.22493946195955    7.15742541547227    3.36386591154489
N         1.72742588339080    8.00119623195395    4.13911864087615
N        -0.48583893325592    7.33259324408995    4.99325425347075
N        -1.42911239759598    6.34842846291396    2.93984781549701
C         2.88106757188937    8.30814278581524    3.56049663163953
C         3.91407789286912    8.92878519376691    4.24418481366146
C         3.74524180341700    9.24474949637438    5.58288014286546
C         2.54350420659569    8.92751824703341    6.19125649766107
C         1.54983682350750    8.30497247612665    5.44604255840903
C         0.24096127949846    7.91141354468638    5.95199364899684
C        -0.27961577362706    8.06666246900108    7.23025214366726
C        -1.56882658125446    7.60262442417524    7.47136847133903
C        -2.31016246554330    7.00189138692692    6.45890297845855
C        -1.72424843436814    6.88109043671935    5.20549986803234
C        -2.28006106942731    6.29778021991570    3.99109554356510
C        -3.54560143303784    5.73567332244288    3.87802150088170
C        -3.94686329130665    5.21452693070626    2.66050093995504
C        -3.06640971734991    5.27341908306478    1.59204967793184
C        -1.81886274908265    5.84818177420226    1.77471133646871
Cl       -2.25286669196265    7.77235890766529    9.03759602868637
Cl       -0.63664210596171    9.15690431535465    2.87535342888492
Cl        1.08342366942461    6.94621314749881    1.39544311024081
Cl        1.01237092861138    5.17609890015081    4.02282572135594
H         2.97849828480546    8.04645420258620    2.51448611373799
H         4.83261807885222    9.15630284612663    3.72797748910226
H         4.53136800250515    9.72744249188226    6.14279064082755
H         2.37058480484665    9.15621265999674    7.23044281820259
H         0.28992716858688    8.53150470307098    8.01734006924419
H        -3.30791763068724    6.64454890732981    6.65089578160653
H        -4.19920992873043    5.71022210882844    4.73474750335764
H        -4.92499200163442    4.77238592497523    2.55013059820694
H        -3.33459781598499    4.88123693829171    0.62458880416735
H        -1.10611683994920    5.91103880085491    0.96223851745696

