21
CSD_code = ICIVUL | q = 0 | S = 0 | Stoichiometry = C5H7MoNO7 | MND = 7
Mo        1.84605815186042    2.01179703509474    6.58153146334878
O         0.92804543333550    2.01178163761407    5.22490115928882
O         3.45886114215782    2.01180927829166    8.84584042431380
H         3.92527588503460    1.24304134556098    8.48693619650949
O         3.13459141437835    3.33550431961240    6.47666808124405
O         2.00333023007026    3.72358568444813    7.16480759214256
O         0.18311674061677    2.01176924429313    7.88411232983603
N         0.55686421387511    2.01176906748902    9.13035275457922
C         0.73909251172220    3.17989127204530    9.76320244510966
H         0.58457839910707    4.06723563240731    9.16045989562619
C         1.13389207057567    3.20507373207857   11.08355856626373
H         1.28602273882111    4.15444162940392   11.57143171293766
C         1.33879756293644    2.01177472242208   11.76123084040596
H         1.65722618138297    2.01177649981194   12.79125884557708
H         3.92540593893129    2.78055679072847    8.48675312004680
O         3.13470875193489    0.68807957338256    6.47690943265177
O         2.00306155549521    0.29997761270876    7.16469420496919
C         1.13392658556715    0.81847426149889   11.08355659486022
C         0.73912667300099    0.84365003877767    9.76320118311694
H         0.58463489664233   -0.04369889027072    9.16046285791447
H         1.28608292255375   -0.13089048739912   11.57143029925741

