47
CSD_code = ICIXEX | q = 0 | S = 0 | Stoichiometry = C18H20Br2Cl2O4W | MND = 6
W        -0.49886788306318    2.87002523962200    7.94314798012532
Br        4.39548928705178    6.73326414644546   12.57043371492621
Br        4.66887854184936   -2.84732244334692    7.02621991331644
Cl       -1.49955461401609    1.73319844418765    9.79961056553667
Cl        0.37843037564428    4.03551846108136    6.04132560525079
O        -1.72847312691864    2.07481332836114    6.82995720333688
O        -1.78534729082612    4.17446777240339    8.10657811277357
O         0.59648588220793    3.81958832929055    8.98108796078957
O         0.59554908501273    1.47940745230026    7.72708554723750
C        -2.79693789456054    2.88058979072171    6.43391419089298
H        -3.68171950885849    2.27355486126753    6.19316994413388
H        -2.48578913412929    3.45849962392610    5.54086344294356
C        -3.05069371264615    3.84142362767298    7.62101671433270
H        -3.60656581616140    4.74038539371751    7.31741283332910
H        -3.60396159284765    3.31271083039018    8.42269305433081
C         1.45173397462223    4.48218748050310    9.78230171211701
C         0.96741748402836    5.04329667919143   10.97227191302315
C         1.85609974485762    5.71486287538930   11.79485674253893
H         1.51166272234697    6.16079698772869   12.71521741553849
C         3.18868967526146    5.81011405107772   11.42826532458027
C         3.66851948561530    5.25113785340214   10.25611822443265
H         4.71228210183169    5.34080941499988    9.99717701436379
C         2.79995645870587    4.57657475389220    9.41250068678107
C        -0.48635466138502    4.87114881134463   11.28756761607615
H        -1.07329631989223    4.91484954905631   10.36038864882201
H        -0.83376582268291    5.63794037297030   11.97441255254797
H        -0.65906855357440    3.89149127588380   11.73869635236148
C         3.23633718051092    3.96269051243528    8.11584143942073
H         2.57210588743941    3.12813471434278    7.84667328178471
H         4.26019774379110    3.60250831692320    8.17812157203704
H         3.17596879749046    4.70042270300511    7.31398610605375
C         1.50405876506308    0.49816609217294    7.57236937816769
C         2.18103024103616    0.01264383372409    8.69919925916044
C         3.12500967498209   -0.98621973104916    8.52107621424815
H         3.66180847801899   -1.38027091619392    9.37025381054574
C         3.37177869718138   -1.47584651844589    7.24966255533442
C         2.70368153393743   -0.99475545591563    6.13563629002824
H         2.91784437652163   -1.39619599259119    5.15709690482529
C         1.75787164399862    0.00588240852780    6.28467656207128
C         1.83916305579170    0.58307253283430   10.04317309260098
H         2.69699856553129    0.55580135870079   10.71025797286327
H         1.02781965487303    0.01094068027587   10.49661912814718
H         1.49109339986499    1.62149835214417    9.93880560084924
C         0.99725929577286    0.60339045581559    5.14143180199174
H         0.93738243932576   -0.08743055765013    4.30493584204373
H         1.48531763967666    1.52043731331791    4.80437321756321
H        -0.01582595827040    0.87079493412365    5.47051898383938

