69
CSD_code = ICIZAW | q = 0 | S = 0 | Stoichiometry = C24H34F3N2O3OsPS | MND = 7
Os       -0.63982367840129    2.54228592347123    2.12514381503950
P        -2.75740947544909    2.16461999388270    3.13336721162947
S         0.37317926950435    5.55750086137062    2.40152465013069
F        -0.57629392145531    7.10770600546578    4.33065793650093
F        -1.41522865711567    7.53424364017704    2.39261691330139
F         0.57273563954105    8.21990361577487    2.88012783329228
O        -0.77137398808555    4.73133444442858    2.76722558420549
O         0.55000859574855    5.75680244789523    0.99037554941532
O         1.55234697610235    5.33634057648636    3.18941054727079
N         1.15412696982121    3.01027630576824    1.18462375380191
N         0.41493097602918    2.25218115854025    3.81750108718999
C         0.74670582946045    2.94927470536057   -0.08859961090250
C        -0.68126918714355    2.56909424995736   -0.10205327368186
H        -0.97351425917469    1.72625187803898   -0.72521551289584
C        -1.60827146636800    3.50007836329090    0.33965902286608
H        -1.30287284377538    4.53415518201866    0.45016468110499
H        -2.65189051096839    3.34882264200307    0.09457961715204
C         1.58877356406766    3.21279839541775   -1.15267213281867
H         1.22446684255665    3.15288462747637   -2.16641601625329
C         2.89727624200399    3.57661060228186   -0.86936846315444
H         3.58217805783939    3.81652458313383   -1.66891134358147
C         3.31329988866551    3.62598962308550    0.45174111124294
H         4.32473307350690    3.89994379557151    0.70532652040334
C         2.40991211881269    3.32564039180671    1.45874176933654
H         2.70378903533163    3.35054917771822    2.49780220082035
C         1.18408241713054    1.13052378157496    3.81576675618210
C         0.85027760237868    0.19500518835015    2.77746241931348
H         1.34783741459112   -0.76647504602809    2.75955401234611
C        -0.11007176052620    0.58593863659770    1.91259872164559
H        -0.39751613229911   -0.13567445199596    1.14314218750576
C         2.17062890666010    0.93055219511750    4.78365833256439
H         2.76552432571662    0.03083788227574    4.74777320909759
C         2.37643414791237    1.88745743006215    5.75566326043904
H         3.14505768117765    1.75921644150550    6.50278266608376
C         1.56629099049869    3.01753575664770    5.75795854440741
H         1.68317343739560    3.78733105221774    6.50233915514029
C         0.60367810747804    3.15387059701401    4.77598945566795
H        -0.03505112970360    4.02419755705080    4.75936073734935
C        -3.35983133250589    3.70983619760351    4.02554826720019
H        -2.43008087261850    4.11496655802000    4.44028603141173
C        -3.87585084406380    4.74156358694236    3.02480716875498
H        -4.84771417475400    4.46040058083535    2.62393934528778
H        -3.16489587600506    4.86364308374168    2.21304064032430
H        -3.98210300454929    5.70663857638085    3.51713472011893
C        -4.35736526151427    3.54933522699477    5.17256911035918
H        -4.54946817196450    4.53324350782619    5.59912466806443
H        -3.97799339762081    2.91507514004649    5.96733143174646
H        -5.30837564957133    3.14918493693344    4.83303998436689
C        -2.92071770493570    0.86287341108390    4.47491342264266
H        -3.94296173713101    0.93459523317485    4.85908884268171
C        -1.93783014340243    1.12097535069029    5.61617745076926
H        -2.24473957022818    0.56891243766227    6.50402916095671
H        -1.87092717476093    2.17504556340807    5.87193985310021
H        -0.94813302203938    0.77751456599918    5.33069053036557
C        -2.68339767413889   -0.54041552346319    3.92653325470675
H        -1.78383022880702   -0.54553846232487    3.31388015016524
H        -3.51965946848828   -0.88769601905404    3.32905416858711
H        -2.54931561107977   -1.23924726355743    4.75053769863638
C        -4.16090109256088    1.73739763314155    1.95223485201939
H        -4.31241215991418    2.67633960299308    1.40953376566656
C        -5.49777073402500    1.33927261608960    2.57082468350008
H        -6.20991158573167    1.13703993548565    1.77122585514395
H        -5.91033616717489    2.13238237925829    3.18620798273730
H        -5.41114946050545    0.43932473623321    3.17234742390905
C        -3.71568287247789    0.68597375530727    0.93505752002172
H        -3.85433778097844   -0.31818538075824    1.32222085243770
H        -2.66292795370282    0.81754461765005    0.69836555046778
H        -4.30174599160332    0.77388607858395    0.02188146329622
C        -0.28119438060165    7.20498712628357    3.02543124139871

