70
CSD_code = ICOGEN | q = 0 | S = 0 | Stoichiometry = C34H28Cl3N2P2Rh | MND = 6
Rh        2.92162975870645    2.33459591328547   15.18385153681639
Cl        2.22372791431280    2.60668337781630   17.37708622902075
Cl        4.45432623010476    0.69029489846022   15.87164790422590
Cl        1.61034227492874    4.13162731120708   14.49520915107603
P         3.85238614994085    2.31346705281736   13.09912317176100
P         1.30442777980502    0.82466733495858   14.87716465528923
N         4.56346654487064    3.52661534002839   15.21665625566898
N         2.07916629195833    0.93827677541325   12.28576071943092
C         5.17418131844962    3.22293056121992   14.05720892337590
C         6.52101538478745    3.48456896648537   13.87459558278030
H         7.02254709887527    3.16157086863807   12.97368187946867
C         7.21370128985159    4.13634295827769   14.88663212052854
H         8.26621051274221    4.35127878617429   14.77222460990333
C         6.54613143923547    4.49513126145214   16.04540852854046
H         7.05652168619740    5.00476160149677   16.84702970492665
C         5.20915940567594    4.15054759847883   16.18540472084376
H         4.65276894099552    4.35541842099860   17.09227918931670
C         3.44023868046626    3.61563180255165   11.88448654311962
C         2.12893134977065    3.81077562633975   11.46236722424836
H         1.33331153542028    3.20973503228192   11.87102798184470
C         1.82540908379036    4.81195596590872   10.55834708752964
H         0.80127043385690    4.95615652121882   10.24765715832948
C         2.82243355853710    5.63739415846885   10.06699449751725
H         2.58330763916659    6.42047444300859    9.36282548729040
C         4.12470158322249    5.47011471462974   10.50428634105012
H         4.90601048615565    6.12556863317337   10.14713970047441
C         4.43167582013609    4.47312023511405   11.41343049187151
H         5.44756924340061    4.38235612877140   11.76927396423854
C         4.86651236734999    1.08647000406365   12.21270956860633
C         4.91445788051341   -0.20481391989877   12.72416744111489
H         4.37303292415133   -0.43465801261135   13.62995254501238
C         5.67156438814820   -1.17347660911228   12.09123178999992
H         5.71271406439448   -2.17211544047087   12.49949830278869
C         6.37750734395071   -0.86217994993660   10.94068613567513
H         6.97032314339009   -1.61745721297669   10.44580344092208
C         6.31906971003691    0.42030254247889   10.42120297538220
H         6.86192171423984    0.66429555116109    9.51911199235179
C         5.56421420828400    1.39498241297943   11.05081601197061
H         5.50996913399606    2.38703128400227   10.62557211632399
C         1.75540383812765   -0.86146192787068   15.37559152660278
C         2.08354250146776   -1.88071255765453   14.49174564209815
H         2.04387336811868   -1.71654446701079   13.42311775260329
C         2.47308766704101   -3.11398380188340   14.98684137605176
H         2.73026897408043   -3.90754901523432   14.29992889328433
C         2.54238352418495   -3.32841814769753   16.35248800659972
H         2.85417890407767   -4.29089483891675   16.73082546002111
C         2.22614730581229   -2.30635003096023   17.23497855142698
H         2.29595161056121   -2.46895454439436   18.30007926661446
C         1.83630620870215   -1.07393632013017   16.75047767565461
H         1.61258959652349   -0.25523127565453   17.42287392637570
C         1.05375168424364    0.61203831826015   13.06656162113499
C        -0.12525430812170    0.09323282596020   12.53806673647569
H        -0.94754984369806   -0.14433625750226   13.19533701136147
C        -0.21891841325714   -0.10074557020497   11.17142446197254
H        -1.12465571072950   -0.49528526493055   10.73529157934408
C         0.87135834279059    0.21504697252127   10.37289397047051
H         0.84480062630500    0.06870959274366    9.30500467958868
C         1.99893804138175    0.73774524420998   10.98055217576679
H         2.87284564634281    1.01505415618603   10.40529030701521
C        -0.38323311579889    0.97371176972336   15.53760118459307
C        -1.16299360779402   -0.16013703029934   15.76404820163611
H        -0.76611995295212   -1.14418551413860   15.55154336558450
C        -2.43907930233036   -0.02658809079327   16.27833147262619
H        -3.03973297644293   -0.90722871910409   16.45543448130586
C        -2.94248545760072    1.23026728887229   16.57619795423300
H        -3.93707853337021    1.32727926438128   16.98633689841856
C        -2.16689222412839    2.35617434042027   16.35812018600206
H        -2.55298411611244    3.33515685566660   16.59884598831501
C        -0.88937497392910    2.23294874103733   15.84010434078975
H        -0.27593161727298    3.10753506605769   15.68061162538882

