101
CSD_code = ICOGOX | q = 1 | S = 0 | Stoichiometry = C51H42ClN3P3Ru(1+) | MND = 6
Ru        7.83864338901575    8.27195928356658    5.97681571437706
Cl        8.94668266419682    8.84403531391878    7.97589545686618
P         7.18986755191810    6.29077955156255    6.93133947788604
N         6.38045736006044    5.36283261805617    4.60189958888306
C         6.14893964976370    5.20729151883941    5.90038541060992
C         5.26959924720625    4.25532905887369    6.40464543358979
H         5.11856449863983    4.16620123289921    7.47011294087251
C         4.61002752353918    3.43370959624976    5.50630374702281
H         3.91324104454209    2.68698181765860    5.85719308814470
C         4.87347352137161    3.57486075294048    4.15159589725680
H         4.39424585093129    2.94197881069288    3.42205608690799
C         5.77117185280955    4.55210344532401    3.75215334974398
H         6.00714976854223    4.69782821382182    2.70613746720243
C         6.21321511283299    6.39310462692145    8.46288060176751
C         6.66793089766836    6.01969239165513    9.72099488766801
H         7.64572643221921    5.57693651958160    9.83530764993954
C         5.85908163179348    6.21067494928058   10.82904358917214
H         6.21593226094215    5.91931513075680   11.80529448272949
C         4.60107455653610    6.77241456773892   10.69258706304242
H         3.97852989767601    6.92272836230829   11.56125863315166
C         4.13781765681848    7.13778799305021    9.43765911362625
H         3.15310597955132    7.56783569757842    9.32574025906101
C         4.94089640469834    6.95100153684736    8.33043325538618
H         4.58375539737441    7.22185344404179    7.34195672379495
C         8.58397214173497    5.17923196455354    7.30004225157181
C         8.74931297203744    3.95566003199038    6.65630893207021
H         8.03605226277727    3.62385804790094    5.91604654548483
C         9.83505862828196    3.15382208259447    6.96189816073503
H         9.95335384936817    2.20442050602058    6.46084603002423
C        10.76173424946418    3.55972732976060    7.90704394655390
H        11.60008608339909    2.92467734349569    8.14989122420661
C        10.61416498009421    4.78588743690417    8.53412870316096
H        11.34144594619547    5.11464894304313    9.26110044259693
C         9.53864021816252    5.59820943054160    8.22747730862621
H         9.44401707874473    6.56814449721766    8.69464228752010
P         6.28576203915457    8.44856856928297    4.23415511335737
N         6.21962173531998    9.31675692008570    6.59523144989549
C         5.36203568848932    9.32910972056273    5.55666667777128
C         4.10019160859086    9.88488819823074    5.65334190032202
H         3.41141142042087    9.83514942356958    4.82290719798061
C         3.73531628137092   10.48447969352875    6.85542787798054
H         2.75825055233721   10.92914595217672    6.96565813625991
C         4.64088592484445   10.49684826634270    7.90335866595542
H         4.39246152321833   10.95579847046345    8.84653911423575
C         5.87847457475570    9.89008701601168    7.74039590235672
H         6.60679544643047    9.85180824276953    8.54164198425485
C         4.96999874329436    7.57921946245498    3.33024121844310
C         3.87710520195710    7.04317868670017    4.00439175596310
H         3.79765778621679    7.15232188293996    5.07809126841836
C         2.89976228607269    6.36237598274802    3.30378658071968
H         2.04800631701690    5.95567635650141    3.82832758718162
C         3.01334976954274    6.20076138005768    1.93179159834494
H         2.24726991886606    5.67080929368063    1.38692658636308
C         4.11016904912890    6.71692500335015    1.26080331281815
H         4.20022481567534    6.58705833293423    0.19271322522323
C         5.09112958640281    7.40078410393277    1.95600778829252
H         5.95031358068423    7.80392269687977    1.43731949670532
C         6.66053126346686    9.80420815787935    3.06301599438787
C         7.86803844565318    9.75937140871990    2.37188420501461
H         8.53871012137560    8.92382265908130    2.52481937763081
C         8.20881689126117   10.77138962777975    1.49340775606471
H         9.14783414293449   10.72609697272991    0.96211027227353
C         7.34644712629828   11.83766022943544    1.29865479519255
H         7.61236303981087   12.63117366448293    0.61740657885220
C         6.13847321194509   11.88180645096344    1.97587193344047
H         5.46193618562573   12.70849191266517    1.81956288369044
C         5.79156537269756   10.86999992508126    2.85312365819050
H         4.84692421797323   10.91315265324841    3.37405004000024
P         9.84966127678998    7.60090078138011    5.05769969921772
N         8.84282080932540    9.91731433391394    5.25544529050779
C        10.03897727675496    9.42113277392213    4.88808409766162
C        11.09278281841292   10.23320129105993    4.51528422195976
H        12.04623375296827    9.80306641626318    4.25046311365231
C        10.89270807127059   11.60872227002531    4.50972799807579
H        11.69182123318932   12.27551794188950    4.22493927183973
C         9.65726133080091   12.10976947946406    4.88563369706162
H         9.46980016412485   13.17123454324311    4.90196668697681
C         8.65471711381847   11.22791937675240    5.26133161367828
H         7.68123063085991   11.58951285159589    5.57380609524363
C        10.02484800701283    7.00745652541888    3.34817093781008
C        11.21850991259371    7.15204840504183    2.64687679431891
H        12.08148406132730    7.58551502805649    3.13244578694876
C        11.29456186256109    6.72368839795699    1.33475736471152
H        12.21734100173490    6.83614791237592    0.78580770272787
C        10.19022522957140    6.14817469303518    0.72351639830729
H        10.25764085337800    5.81542564185557   -0.30114032976203
C         9.00580795772954    5.99471956218836    1.42567762549677
H         8.15048880947367    5.53957776694841    0.94839688443606
C         8.91892535286160    6.42470664116571    2.73856308235231
H         8.00303295411295    6.31206579413865    3.30969255881305
C        11.37848251134895    7.04077464620883    5.84823018585817
C        11.99543463748275    7.81272976129302    6.82910502950911
H        11.58095984295152    8.77296388929203    7.10221873379379
C        13.12803910887302    7.33520716258493    7.46214983436429
H        13.61022229527051    7.93478401757554    8.21947670029043
C        13.64104642930997    6.09153388588187    7.12965179741728
H        14.52716333393302    5.72452174172376    7.62505350550675
C        13.01547537620138    5.31471061562436    6.16729614390840
H        13.41119553631589    4.34271985546928    5.91414634269306
C        11.88118920037149    5.78102659573323    5.53067816462294
H        11.38130881808055    5.17523803569283    4.78689928510775

