77
CSD_code = ICOHOX | q = 0 | S = 0 | Stoichiometry = C44H20F8FeN4 | MND = 4
Fe       10.45931635356429   -0.00027372056969   -0.00027630739530
F        13.85511691000640    3.42992989355532   -2.42608411314776
F         9.68784363164235    5.22439532909256   -1.18126563625487
F        11.42273908138006    2.69841295013570    4.78681364887419
F        14.54879817816359   -0.67056187545073    3.75643042462123
N        11.55130322074089    1.48446121961129    0.75046386634347
N        10.84866295619098   -0.89908692399775    1.73207093971625
C        11.34813304522019    2.94540066603519   -1.22539731959398
C        11.79855386530028    2.63194110619334    0.04914604991015
C        12.61769637828618    3.52562000482820    0.82044925067959
H        12.94991393312554    4.49306261021161    0.49706504743851
C        12.87073091251492    2.90853819578390    1.99520262330919
H        13.45692391642818    3.26459179097035    2.81967101765346
C        12.19571215253721    1.64529118392381    1.94195406848526
C        12.21414601823274    0.70076028032217    2.95810531816228
C        11.55689961135497   -0.51470534385792    2.83274302925537
C        11.50407459018199   -1.51826778753622    3.85468395626278
H        11.96826403778725   -1.44678394604654    4.81890960884266
C        10.76177371506823   -2.53094536582255    3.35622717507215
H        10.50001900077327   -3.45564651486841    3.83308241000126
C        10.35958365724612   -2.13992244804007    2.03335246487629
C        11.75192409197268    4.26425646536307   -1.77728467573074
C        12.99811802216005    4.46601859502621   -2.36103176906509
C        13.39018197598679    5.68674108633230   -2.87955107093333
H        14.36854992655160    5.78344836535586   -3.32210062324221
C        12.51414486355312    6.75661000012997   -2.81770744690716
H        12.80705280606384    7.71439665149113   -3.21730524492156
C        11.26371807559516    6.60188368535867   -2.24485135363705
H        10.56521993827377    7.42087392897732   -2.18433191933213
C        10.90412761451261    5.36625006248205   -1.73787868755659
C        12.94726682334127    0.99840669997125    4.20503316624180
C        12.53242827007525    1.99657279125586    5.08274228224182
C        13.20551481850347    2.28837529786514    6.25477513331379
H        12.83266609468022    3.07075582927857    6.89608667059532
C        14.34103365016468    1.56602311186388    6.57781378745031
H        14.87591537486469    1.78387816026116    7.48838603338955
C        14.79165674754533    0.56472889142315    5.73529765352709
H        15.67500036253466   -0.00974570543866    5.96343325621349
C        14.09312301712465    0.29764919406155    4.57221454173825
C        10.55799955215740    2.13999829143894   -2.03329419628453
N        10.06904722429956    0.89909889395204   -1.73207842188425
N         9.36644574426931   -1.48451814999528   -0.75049440886385
C         9.11903414658808   -2.63190067944414   -0.04908792385689
C         9.56945536105312   -2.94534225691144    1.22545910149674
C         9.16571361733369   -4.26422002140981    1.77732626867114
C         7.91952295873625   -4.46598328864548    2.36106408789432
F         7.06252264382349   -3.42989712643251    2.42610046621664
C         7.52745695002575   -5.68670171386038    2.87958327245117
H         6.54908724616369   -5.78340049331407    3.32212529201150
C         8.40348800771062   -6.75657169665731    2.81774266605391
H         8.11056859105720   -7.71435467515433    3.21733840453323
C         9.65391491696511   -6.60184941657255    2.24488961999572
H        10.35240389547821   -7.42084686920237    2.18437092519211
C        10.01350889681660   -5.36621750673446    1.73791885708087
F        11.22978428174497   -5.22437402729461    1.18129316135751
C         8.29997676504654   -3.52562287871988   -0.82044028408169
H         7.96776485058359   -4.49307075883261   -0.49706310935841
C         8.04697087214311   -2.90854810164527   -1.99520572347583
H         7.46081182293515   -3.26461606560067   -2.81969251105030
C         8.72196565004529   -1.64528663994759   -1.94194308515535
C         8.70355579934704   -0.70075521843824   -2.95810074963275
C         9.36076948610897    0.51473313977770   -2.83272643744966
C         9.41362335920893    1.51828395663876   -3.85467894962400
H         8.94947928550183    1.44677895374465   -4.81892561223724
C        10.15589496406825    2.53097687258312   -3.35620860990341
H        10.41766611150686    3.45566985495352   -3.83307004812238
C         7.97046246361340   -0.99841338399799   -4.20504448398297
C         8.38532651788729   -1.99658118401819   -5.08274443079981
F         9.49501014577836   -2.69842183007634   -4.78678770598684
C         7.71225871871025   -2.28839958083140   -6.25478896536777
H         8.08512602181061   -3.07078430464804   -6.89608661722992
C         6.57673401805243   -1.56606239381968   -6.57784796942196
H         6.04186591560714   -1.78393672353504   -7.48842669589635
C         6.12609027884341   -0.56476313672914   -5.73534399527293
H         5.24274068255719    0.00969865074533   -5.96349926593492
C         6.82460400178992   -0.29766902593869   -4.57224936197392
F         6.36890059538203    0.67053611904090   -3.75646981660428

