51
CSD_code = ICOKUI | q = 1 | S = 0 | Stoichiometry = C21H23N2O4Pt(1+) | MND = 6
Pt       -5.37449877343617   27.25134286473020    5.47596145022787
N        -5.39319321500985   27.33890802676412    3.19019010968117
C        -6.40447108938988   27.67894645073472    2.40044464251489
H        -7.37404717821047   27.75496848624865    2.87235652516304
C        -6.24051814158232   27.92434861489162    1.04731891466981
H        -7.08826584360545   28.19580293619219    0.44015201881340
C        -4.97087640701179   27.82062478645493    0.49983863924216
H        -4.80245493857870   28.01175434259391   -0.54828613848513
C        -3.91401297200693   27.46671705925563    1.32420614001271
H        -2.90673940859087   27.38243711881877    0.94760013721112
C        -4.17473860351303   27.22635854867455    2.66442153561897
C        -3.05337077793818   26.85935668273829    3.64435127717058
C        -2.71347891795585   28.14337429858716    4.40440870557727
C        -1.46561106779709   28.73163172507968    4.28208999433012
H        -0.70991978190134   28.25653554408447    3.67997140127403
C        -1.22446199923862   29.91593871838343    4.96089970870349
H        -0.25936029305050   30.39301880808381    4.89405803423287
C        -2.24175524377152   30.47192822125502    5.72073598152538
H        -2.09919865600172   31.39667987151251    6.25582724627024
C        -3.45471317438577   29.80791626271863    5.79017892068591
H        -4.27565758160337   30.19893693691684    6.37634861358692
N        -3.68489505800406   28.66833554572832    5.14832736085094
O        -1.91228534975274   26.41231848014236    3.00220541533554
H        -2.06715738553130   25.57756335047740    2.54175709939100
O        -3.51616610390314   25.91925117352865    4.59491964983311
H        -3.67073584026593   25.05708019281076    4.18349922261879
C        -6.86195969196564   28.63098387943372    5.77042613602933
H        -6.97011417809513   28.91453106917475    6.81635613186441
H        -7.82167265568760   28.26224200373996    5.41178779456467
H        -6.56424693551312   29.50163389448599    5.17986129226026
C        -6.77972934034430   25.76682686734165    5.56362855990281
H        -7.47435681111904   25.82134963822052    6.39927417438081
H        -6.21958311232935   24.83014236719950    5.63382814111127
H        -7.35771458123723   25.75887997552509    4.63711453277492
C        -5.03390374646459   27.10988779683124    7.51810591043482
H        -4.88581498093074   28.11199027667393    7.92748547954643
H        -5.84705119446052   26.60415645415736    8.03912215315740
C        -3.78816368985252   26.32465170415038    7.52077300608674
C        -3.82447428104776   24.92374068486742    7.49719874133812
H        -4.77757181435730   24.42050104224485    7.56938611342758
C        -2.66440813981754   24.18403432181579    7.40211688644064
H        -2.69978997780897   23.10599721450644    7.38287463077100
C        -1.43210581220025   24.82965793266686    7.32639794034693
C        -1.37689557262723   26.21993889235520    7.40179624477282
H        -0.41037775944094   26.70007327770792    7.37596461725036
C        -2.53688732038562   26.95489471014536    7.51129334310323
H        -2.48070933267952   28.03043728234183    7.60546289783067
C        -0.16034281509306   24.08326096645412    7.17442758317006
O        -0.31454578700480   22.75508511494105    7.23937357704026
H         0.54647453870544   22.31467000773431    7.15969530428336
O         0.91012879380862   24.60615757787719    6.99416620203480

