113
CSD_code = ICOLOD | q = 0 | S = 0 | Stoichiometry = C56H53FeP3 | MND = 8
Fe       -2.52253095601235    3.69748446671100   10.01733444691394
P        -0.98188847305393    2.34705280695870   10.57625499239901
P        -1.97472851397556    3.25612721319559    8.01127465205616
C        -3.49015172966087    4.34805943514708   11.73689348984527
C        -4.32148201839815    4.64891003870653   10.61882973835572
C        -3.59872420972993    5.51046000016348    9.75595859702223
C        -2.32900770949339    5.78770442271748   10.36133564194983
C        -2.27713417080260    5.09294385440342   11.59647657382541
C        -3.92058432994930    3.54097576192693   12.91695790802309
H        -4.48336447354027    4.15485302772436   13.62213664770869
H        -3.06509541477571    3.11316031187221   13.43431204469603
H        -4.55953548015026    2.72383285081116   12.59151246787267
C        -5.75027940504269    4.23647991607627   10.47659467528067
H        -6.34622454601747    4.69621712569001   11.26627961766945
H        -5.84981692382312    3.15633072868717   10.56666182985888
H        -6.15024372738365    4.54671351628478    9.51483441382590
C        -4.15266204844998    6.21102459675855    8.55603760216149
H        -4.58921948623264    5.50820515529820    7.84823677466015
H        -3.37335028595399    6.77393014678307    8.04975210657677
H        -4.93261485683693    6.91006871793453    8.86405842695272
C        -1.37627633235263    6.84308195881047    9.89174698805904
H        -1.86662122284931    7.81836346680929    9.90484406015362
H        -1.03845059900841    6.65227393215722    8.87267500798897
H        -0.50624465328120    6.89556113170616   10.54123112302203
C        -1.23506470402974    5.26298054665333   12.65388076136015
H        -0.22848130730558    5.20935781593383   12.24337775027354
H        -1.33926692780333    4.49762299801523   13.41795647993033
H        -1.35535665122171    6.23786272137549   13.13079622003195
C        -0.72079399265925    1.05700441463019    9.24665629886136
H         0.35693802157358    0.90323368420855    9.13065423973110
H        -1.15575003908197    0.11515867000156    9.58734778055348
C        -1.36407271539776    1.49787330027685    7.93031433735897
H        -2.26487737597907    0.90740593642587    7.73899607275452
H        -0.69168860447793    1.37205833412089    7.07613247126211
C        -1.14688589418251    1.36749823550663   12.10179090849491
C        -0.52708200970966    1.79392041003875   13.27499498915669
H         0.15042944375531    2.63625895098103   13.24563524871970
C        -0.76056451251150    1.14085603229013   14.47129395370406
H        -0.27046807180515    1.48047743655745   15.37308583746841
C        -1.62281899279235    0.05734397899376   14.51567746159017
H        -1.80607317720351   -0.45364275505384   15.44991393088890
C        -2.25130655037225   -0.36719046920241   13.35689505354602
H        -2.92230465648348   -1.21328334750524   13.38433589345775
C        -2.02307088723783    0.28765707695120   12.16097198311798
H        -2.54158544266973   -0.02694199042070   11.26910126420810
C         0.75163862772186    2.92872827289604   10.71658697960194
C         1.03385483677038    4.20865654276430   10.26156244518781
H         0.21645325464218    4.80822604751565    9.88903533979212
C         2.33144156744895    4.68852901834989   10.26981898779074
H         2.54170019573446    5.68599882488660    9.91112019147193
C         3.35839811577504    3.88234770775821   10.73069400601536
H         4.37393049840038    4.25075752286325   10.74098002011385
C         3.08586102360811    2.59681651276757   11.17453848000192
H         3.89021808273784    1.96687564342611   11.52703494856758
C         1.78929533339106    2.11706513664368   11.16545755417166
H         1.57513406096433    1.11379428508099   11.51013447549862
C        -0.64901485311564    4.19456208158201    7.17879238669808
C        -0.97967882211582    5.41030698166379    6.58362674052961
H        -2.02141449153909    5.69546839540278    6.52247933453499
C         0.00293432457747    6.22613612552589    6.05570971211967
H        -0.26532604901560    7.16297423902944    5.58815010261552
C         1.33337234372496    5.84449071578503    6.13078505479162
H         2.10287060877584    6.48208842092521    5.72088474418232
C         1.67306554739574    4.64474955669315    6.73369805803362
H         2.70963024900609    4.34603085749790    6.79819495561385
C         0.69002750224540    3.82722231350228    7.26090229448668
H         0.96707680695568    2.89971795405760    7.74076826069158
C        -3.21737183139242    3.16736682645466    6.67788085518863
C        -4.55050872720970    3.06506943235376    7.05749574119957
H        -4.78091705454187    3.05927358250189    8.11327472314082
C        -5.54120330079565    2.94575244701440    6.09970438319833
H        -6.57620737249341    2.86410047409753    6.39963484208821
C        -5.20450837324751    2.93139655448768    4.75578684345669
H        -5.97609613522654    2.84155506855359    4.00488677698062
C        -3.87605318775582    3.02759923578185    4.37287719633605
H        -3.61438349545552    3.00979015585044    3.32450477481628
C        -2.88230352003776    3.14350106162792    5.32820465037716
H        -1.84594054548241    3.21909844966856    5.02811596063256
C        -3.47107042608697    2.08079172981823    9.88928367153729
C        -4.27524425546420    1.17316775396124    9.94803466748688
C        -5.22180426581798    0.13596371386508   10.10273512672111
P        -7.08025396377618   -1.75801813016629   13.26476402502598
C        -5.59651565748560   -0.24342241123698   11.39296777512844
H        -5.13734812419469    0.25545434742594   12.23573204870390
C        -5.80434884971371   -0.50461580207699    9.00561190968929
H        -5.51771055650529   -0.20708733703986    8.00586788628952
C        -6.74163958612132   -1.49976331580390    9.20344876919412
H        -7.19078730655211   -1.99186064880937    8.35164992107386
C        -7.11723277046122   -1.86607945981850   10.48601404212724
H        -7.85716268837678   -2.63926477899103   10.64158840880500
C        -6.54024793347786   -1.23796961538519   11.58655099303264
C        -5.57754943784838   -2.63955374086226   13.83011976346808
C        -4.63424912428154   -3.16516000669144   12.95451681412612
H        -4.73456420936178   -2.99854462279532   11.89094883332259
C        -3.56137884480001   -3.89308021332752   13.44111670919141
H        -2.82665710837710   -4.28776138163625   12.75351852886294
C        -3.42378247754257   -4.11042858881068   14.80137543305183
H        -2.58167392164829   -4.67277492669131   15.17768877066016
C        -4.37453371174115   -3.61143655346181   15.67835981512986
H        -4.27770893536793   -3.78919760196040   16.74001328452067
C        -5.45015644109345   -2.89201849859404   15.19518233841353
H        -6.20000676224154   -2.50867780112406   15.87505669800793
C        -6.86228717720584   -0.13467727343621   14.10098181793195
C        -5.71286476150239    0.28050611465373   14.76321188121107
H        -4.86252625237959   -0.38032572649782   14.84990426972218
C        -5.64778720027046    1.54890491060003   15.31181150558857
H        -4.74514285330783    1.86495272250214   15.81519917987628
C        -6.72492910106809    2.41268889702110   15.20884980158855
H        -6.66827203959761    3.40270322986380   15.63788792289823
C        -7.87604632687903    2.00380899563911   14.55570038902611
H        -8.72026820813050    2.67349090383311   14.47416090714030
C        -7.94397591589422    0.73660218622300   14.00858437700077
H        -8.83987141166862    0.41020992067405   13.49660113127100

