27
CSD_code = ICOMIX | q = 1 | S = 0 | Stoichiometry = C6H15AuCl2N3(1+) | MND = 4
Au       -1.50862840110507    9.97681435123692   11.34145298411270
C        -2.59591009387913    7.46093654454665   12.29500965425542
H        -3.16973379818695    6.85787331258852   13.00665191474265
H        -1.69481152457257    6.90483054606016   12.02636754050375
C        -3.43268055183591    7.69715852875472   11.03668803062414
H        -3.50610714776142    6.75692322862007   10.48328916165975
H        -4.44156537684386    7.99635427012013   11.30913552168083
C        -3.85560557167687    9.63392063027526    9.55813684821719
H        -3.30595640720240   10.31682237882248    8.90909772235861
H        -4.54986891265198    9.05084015543642    8.94585211293315
C        -4.65751921700031   10.44575840128640   10.60230969522665
H        -4.96115815425477   11.37618175666599   10.12119282654262
H        -5.57708972820019    9.91346406463881   10.86478819356980
C        -4.29568797299129   10.05139641670583   13.02963772599452
H        -5.02317843447827    9.27286691489639   12.79325450802984
H        -4.79067739515597   10.74326285828120   13.71819712246727
C        -3.10951390970072    9.43694678999132   13.78526924813427
H        -2.54145625281420   10.23591939496639   14.26542407815639
H        -3.49360546656422    8.76637623516842   14.56031328903880
Cl       -0.81645057431872   11.15777425323978    9.56813833219986
Cl       -0.06454096907330   11.06885257159793   12.67269060008790
N        -2.15444675285384    8.72311251973519   12.92139856382995
H        -1.34783551774926    8.51800419775068   13.50902023512618
N        -2.85567287204317    8.75946047143015   10.18454882916660
H        -2.29590491509853    8.34777358838060    9.44079598793546
N        -3.86973576565439   10.72426979870482   11.80236874488436
H        -3.80015831633270   11.72180582009853   11.95877052852138

