71
CSD_code = ICONUJ | q = 1 | S = 0 | Stoichiometry = C33H32MoNO2P2(1+) | MND = 8
Mo       13.46711140539297    8.76238590997213   11.83518615894855
C        13.51416678191085    6.52911082032880   12.64085016805371
H        13.03586386519291    5.90764811979547   11.89084485217034
H        14.39624960688398    6.07967826724246   13.08482936371617
C        12.73248923817200    7.34940584630519   13.44372167604902
H        13.03203748093146    7.57400904418322   14.46821050986953
C        11.56235931346762    7.94573332174029   12.89276288170433
H        10.96350690656901    7.33037330438207   12.22243745361506
H        10.95508589181912    8.52272717009924   13.58725380573940
N        13.85194328230779    9.81632131129947   13.51477895909995
C        13.98837134443872   10.47115998316446   14.45125658202305
C        14.17750333754567   11.29223704227127   15.60781186191271
H        14.61942887452871   12.24534346690050   15.31491458854927
H        14.83638448932611   10.78958252652277   16.31643601258127
H        13.21742250131218   11.48092420708233   16.08836999690016
C        12.94157585137115    7.81931807972448   10.22439712702951
O        12.47120001472077    7.29851970895428    9.32028742844289
C        11.74291527417337    9.59084558229087   11.48893576288319
O        10.75548155807869   10.05870259777575   11.14388382442303
P        15.86940352725246    8.33281084316644   11.78179921844780
C        16.74350262601549    9.81411813930143   11.10731829631163
H        16.78617026105969   10.58722253109505   11.88127165316017
H        17.76416698499645    9.54633524426703   10.81475795648138
C        15.92644118768801   10.31049621109663    9.92339709163492
H        15.84131303150181    9.51990337732663    9.16774024205986
H        16.35544963366286   11.19616996990663    9.44323573251431
P        14.23474636017689   10.65000166936323   10.54617603368465
C        16.65752684652560    8.08140337987521   13.40171719482116
C        16.89846459027305    9.15092364154191   14.26062361098029
H        16.69100095151614   10.16419416880082   13.94353634063907
C        17.41651071622115    8.92669314021824   15.52374427110250
H        17.61824994366011    9.76305204282853   16.17713080348822
C        17.68566304249367    7.63647536016126   15.95002987194254
H        18.08979551447991    7.46589956508303   16.93575173761676
C        17.43874826607387    6.56639784121217   15.10544727405753
H        17.64992180246760    5.55938989077569   15.43144680973362
C        16.92539985565722    6.78526547538091   13.84046920259544
H        16.75209461438984    5.94721875245154   13.17784102493908
C        16.63497349247264    7.02895223934253   10.77613089922516
C        18.01538175141671    6.83550490106654   10.84430878717726
H        18.61070956698895    7.42877492860067   11.52632364960662
C        18.61741900167980    5.87363815327287   10.05724207422341
H        19.68487516707842    5.72420714766649   10.11508843659084
C        17.85310828323977    5.10021182873681    9.19553151152354
H        18.32760567014693    4.35019528287153    8.58194990273293
C        16.48331045409948    5.28737856605249    9.12623572319755
H        15.88646811975733    4.68487057989278    8.45871074322915
C        15.87467582576901    6.24845319028643    9.91595880464959
H        14.80565173905223    6.39515291143517    9.86871981572133
C        14.36845748450779   12.20939728547771   11.46872910241279
C        15.48224116520702   13.04401828296881   11.46201436289652
H        16.35114592717595   12.80646058428173   10.86671686641629
C        14.37585698349445   14.55335539131240   12.97142960384693
H        14.38034484191330   15.46428795188594   13.55011449248825
C        15.48231944299565   14.20733925724056   12.21417804570345
H        16.34958145220191   14.85006258121710   12.20134816964208
C        13.25850464712817   13.73193154320531   12.97625030780909
H        12.38800861119005   14.00454979857949   13.55407667763191
C        13.25704589900868   12.56563623429460   12.23443348558121
H        12.38429763990936   11.92396460154499   12.22969618673386
C        13.31439211117887   11.10057527287151    9.05369526886567
C        12.59867857219537   12.28883473226496    8.94553274891362
H        12.61544332897069   13.01005603158324    9.75015575029716
C        11.86536643694376   12.54858408533628    7.80065092645871
H        11.31059333695540   13.47092582338633    7.72047858666450
C        11.83955871830015   11.63070519838430    6.76449431494034
H        11.26252247496092   11.83583010315003    5.87614854243462
C        12.55339367049147   10.44649301900036    6.86787697885363
H        12.53424983510387    9.73000798176075    6.06095427435816
C        13.28569188317087   10.17864063253330    8.00799757074797
H        13.83745969109130    9.25120632470832    8.09072400846250

