85
CSD_code = ICONOE | q = 0 | S = 0 | Stoichiometry = C29H42BN7OS4Zn | MND = 4
Zn       10.33023349999477    3.66168488034430    4.00888885124485
S         8.45869762828044    4.16890884010383    2.39867937242675
S        11.12634204902236    1.43917614194817    3.08850762479711
S         9.13419433553718    2.88878662757475    6.12114776500530
S        11.94628522550826    5.36529144580515    4.18974070908394
O         8.60030687393322    7.16147881127593    4.12588940146945
N        10.24458382097894    7.19041818995866    2.53276453127248
H        11.23472401276433    6.98486372166110    2.43314146891744
C        10.85633149607259    6.70328804856992    4.78444238363770
H        10.42398935214474    6.43261695313425    5.74655723625584
H        11.50390356178691    7.57330202633045    4.91406305849105
C         9.75976290443971    7.03042092784822    3.78813413283902
C         9.57433574633760    7.50591096719756    1.35286629662351
C        10.33722780935602    7.66527350349209    0.19682009535227
H        11.40953390852111    7.53513391775080    0.24593469964709
C         9.72921435279408    7.98854792620689   -1.00018999414607
H        10.33105024849792    8.11328245256641   -1.88921869121883
C         8.35519373555073    8.15488182321359   -1.06146061450699
H         7.88010157588356    8.40910048448453   -1.99748235891880
C         7.59648909154415    7.99219292661994    0.08529192825653
H         6.52437072010161    8.11642059206978    0.04348233115211
C         8.19400478172281    7.67060082045998    1.28999481692232
H         7.60419500071727    7.53828158540748    2.18092714230446
B         7.80325909172099    1.08854243822424    3.57851559193851
H         6.94959549610295    0.26066252804801    3.46676218095630
N         8.25446837964395    1.48226804249308    2.16060991736918
N         8.94998731680678    2.46787398302895    0.32279056554560
N         8.95919545775306    0.44799655195285    4.37496929339963
N        10.87065477083558   -0.17584612886010    5.26785097713125
N         7.18401212992951    2.28022133316577    4.34257815989766
N         6.60807942308979    3.84741742080710    5.77774809975557
C         8.57309935347052    2.66505978434487    1.60891424004104
C         8.44934275901602    0.52093947885791    1.20821026339205
H         8.27307974618195   -0.51298366852580    1.41789902480190
C         8.87761645301591    1.12111072358120    0.07748308524575
H         9.13174475220610    0.68186748773678   -0.86152287278961
C         9.41733269224249    3.48971655035789   -0.62268305273691
C         9.78807015440164    2.83588591263039   -1.95471310181340
H        10.60430732636622    2.12781354213609   -1.83256556818253
H        10.11734915080545    3.61357095371320   -2.63869603034028
H         8.93307198947650    2.33566627491655   -2.40413669722234
C         8.29209048749704    4.49858500392470   -0.86119544591109
H         8.00625875019169    4.98559548152994    0.06587039934548
H         7.41975331318587    3.99967624810966   -1.27888709592467
H         8.62590058325827    5.26414372318842   -1.55528198844591
C        10.66209728777862    4.16516619074985   -0.04338324626890
H        11.41120838027853    3.41917235809103    0.21614357085956
H        10.41302535696838    4.72951261628073    0.84949300175669
H        11.08088246419380    4.85111797184769   -0.77357410737136
C        10.29601574400365    0.55948863623916    4.28622233340801
C         8.68923219032505   -0.36336366833334    5.44211053276209
H         7.68364294914930   -0.59401202837294    5.72449915351198
C         9.85907071849006   -0.74791970884249    5.99481181145686
H        10.02708706016929   -1.37533610443984    6.84171987622429
C        12.30606486139328   -0.28229208474778    5.56298440174269
C        12.51704690913505   -1.16774044788948    6.79238574592836
H        12.13450360123452   -2.17302519691158    6.62948109000189
H        12.04862978358838   -0.73541854823114    7.67334073911285
H        13.58419879413158   -1.24389181472626    6.98352132551424
C        13.01605924187849   -0.91872358940531    4.36581636056499
H        12.88389910277125   -0.31211670385764    3.47520430965528
H        12.61775997418723   -1.91332682500881    4.17435999154026
H        14.07879606967149   -1.00121809336222    4.57427606821192
C        12.85615882315624    1.11462761842806    5.86367119517026
H        12.86343263891310    1.73623705093982    4.97292835004574
H        13.87544210642599    1.03838971156429    6.23093035867447
H        12.24604612839163    1.60399347346706    6.62090265791218
C         7.59924712637202    3.00877913910192    5.39305668697349
C         5.91712467545489    2.69719019422108    4.03809811665428
H         5.37747124765489    2.27706183433287    3.21570080686116
C         5.55991069494285    3.65875889370011    4.91540955199353
H         4.65002777577334    4.21392157463199    4.96886112789519
C         6.59617020404616    4.72165583625350    6.95989367726258
C         6.68243263289964    3.83098456310347    8.20372981323119
H         7.60180051783362    3.25166793227221    8.19278061314075
H         5.83701851706750    3.14595209994909    8.24215642483636
H         6.67330963709351    4.44817905528782    9.09754669790864
C         7.76634708965913    5.70374766918692    6.90480522330483
H         8.70909261332332    5.18729535719895    7.05689469894245
H         7.65524268899082    6.44569556886004    7.69099717764600
H         7.79237218512076    6.21508519041891    5.94418411613062
C         5.29305793902061    5.52042218062379    6.99782190567128
H         5.20201321394331    6.15143674901018    6.11714388488695
H         5.30833639922876    6.16517060758038    7.87263977773103
H         4.42438334551584    4.87032746077854    7.07889204758135

