60
CSD_code = ICOPEX | q = 0 | S = 0 | Stoichiometry = C23H35PRu | MND = 9
Ru       22.00194375817611    6.85469806684909    5.34681195024532
P        19.90088492057627    5.99119610462854    5.01035555176061
C        21.84696230501573    6.22715971082594    7.45456228162377
H        22.58460685588387    5.58193765921352    7.93194697845610
H        20.82891561508489    5.96136390667187    7.71821198287440
C        22.20859405778798    7.59272886099381    7.33577777335947
C        21.30968068093041    8.48599505664777    6.65208580339775
H        21.77797747622585    9.43550003403066    6.36030705960015
C        19.91199832349056    8.70808184496213    7.03286379304623
C        19.38797880951325    8.26856488526681    8.25326021732429
H        20.02012551487682    7.71712178347444    8.93393148194285
C        18.08268521435449    8.55136417551383    8.61059306373004
H        17.70067632959448    8.20112733391914    9.55970006789068
C        17.26731430163969    9.29119040051208    7.77009127913099
H        16.24804778218903    9.51070078737788    8.05214177344561
C        17.78110971643917    9.76616251170078    6.57325351032431
H        17.15989910766824   10.36454507162489    5.92082043476246
C        19.08503632196432    9.48823803212540    6.21646168500935
H        19.48663482589143    9.87412261113935    5.28923132497230
C        23.49401652687970    8.09689682597673    7.93788491468340
H        23.28873669948164    8.35292680220981    8.98103642020181
H        23.85379155444000    8.99807009154460    7.44700876068356
H        24.27434176768236    7.33800660922303    7.93333878093466
C        23.85573309685124    7.84365034550479    4.53498387007475
C        24.17998475588401    6.48651620273824    4.86372142233735
C        23.38947904067231    5.62499745614899    4.04949395478995
C        22.58050952938652    6.45685183014288    3.19684317965507
C        22.86027280121373    7.82402791672079    3.51048449361080
C        24.66001366420472    9.06665715378342    4.86771671419656
H        25.23535464175744    9.36224434527742    3.98673977524158
H        25.36053218450052    8.88286336626451    5.67873730683624
H        24.02359686012494    9.90873368238900    5.14021869759749
C        25.34565136229623    6.01235481911967    5.68092022415033
H        25.05133448039255    5.23110633130637    6.38147532401552
H        25.80174527547867    6.82562708938610    6.24049071727756
H        26.10419183286856    5.59310207755330    5.01564952569578
C        23.63995748754256    4.15439235004572    3.88258274939385
H        24.48892234009361    3.99771544814243    3.21106337290952
H        22.77572947620413    3.64433932648072    3.46331696085751
H        23.87714989131647    3.69025752006103    4.83782826433721
C        21.93916877100820    6.02521609175182    1.90696231997296
H        20.90578854360537    6.35777389617933    1.81661205241700
H        21.96956575012412    4.94384221135108    1.79411105368659
H        22.50000571557032    6.46247406886200    1.07766307665779
C        22.43810210385519    9.00457503424885    2.68688762380169
H        23.16944120796408    9.18439830332637    1.89364555703028
H        22.37223912756560    9.90576591034247    3.29318786263255
H        21.46969902722039    8.83213172341029    2.22136348531156
C        19.86930435649296    4.34145758074377    4.18337700750305
H        20.43479790766535    3.64596335926624    4.80157854403656
H        20.33064456572795    4.39742444856446    3.20309312063849
H        18.84447320607188    3.98588778193065    4.08126170630947
C        18.65928793855803    5.58039540708212    6.30903306854339
H        18.46731772772599    6.44358251949047    6.94118406613914
H        19.03081492232022    4.75979522443969    6.92017373158611
H        17.73143767088795    5.27491760793516    5.82614726783147
C        18.78244088893809    6.94140491831693    3.89372803170930
H        17.97512665471204    6.31297926409921    3.51972652977234
H        19.34786802447783    7.34835873750117    3.05893194687494
H        18.36855870293002    7.76991948372630    4.46488850516665

