60
CSD_code = ICOPIB | q = 0 | S = 0 | Stoichiometry = C23H35PRu | MND = 9
Ru        4.99210336619825    7.84481881470930   11.44379238720890
P         6.60569972750626    9.40983872584569   11.00224132095985
C         6.18082389493353    6.98820570179291   13.04420279482095
H         7.17182573752492    7.42082872786750   13.16557595610735
H         5.72712615635496    6.73713290271292   14.00309557017091
C         5.97680295021280    6.04118240700362   11.99385927552603
C         6.60013636383422    6.39240580572159   10.74949771785396
H         7.58329601267624    6.86052086524727   10.86784220347715
C         6.54650999418550    5.60452417649225    9.51987861430747
C         7.70767099277917    5.45843938168414    8.75186501610111
H         8.62843344451780    5.91180023784729    9.09631097694412
C         7.70494239073359    4.74045331286882    7.57274503518029
H         8.61883481404539    4.63967588092800    7.00369264197908
C         6.53824805624075    4.14912927849635    7.11680605703486
H         6.53462242379200    3.58694261753766    6.19439773974028
C         5.37371242117820    4.29774032501969    7.85213560460038
H         4.45300157639720    3.85446644774168    7.49724429009039
C         5.37808701742500    5.01688069685368    9.03013709216334
H         4.45686884203129    5.15762949249275    9.57079880043352
C         5.35556659454817    4.70260572983345   12.29311232590855
H         6.15309089562166    4.05031807249671   12.65941144089808
H         4.91681713712250    4.22296796955808   11.42439049263262
H         4.60967342754337    4.78158168313671   13.08219497093900
C         2.99843284865276    7.85726999866756   12.46169840386472
C         2.90755748033860    6.93444311159644   11.36657180699382
C         3.09145774049300    7.67242920664576   10.15472168935020
C         3.33081367563339    9.03360417702346   10.49783396372894
C         3.26320235224881    9.15420538501997   11.94130466598881
C         2.62346555765513    7.56631485736418   13.88436093164883
H         3.14973056481076    8.22818799545314   14.56919788410459
H         2.85240768793880    6.53803783079682   14.15796288778281
H         1.54991509063311    7.72082595581185   14.01953649721746
C         2.25215450753027    5.58613143804341   11.45909352714085
H         1.17398350471802    5.71007191981604   11.32462545726013
H         2.41349115481867    5.12703083830996   12.43131926193423
H         2.60368265287712    4.89609040353163   10.69454132116755
C         2.80307944950218    7.20285865749299    8.75869077384373
H         2.02845496904946    7.83338255470888    8.31653690372168
H         2.44415349168152    6.17681384282319    8.75521575220376
H         3.68479097062378    7.25805986394021    8.11994267209811
C         3.19907032033640   10.15219042907805    9.50308895359416
H         3.84803036615331   10.00324031825564    8.64106712179144
H         3.42079229598514   11.11995737459004    9.94611435522568
H         2.16805439058290   10.18367983487650    9.14018210119938
C         3.08765618810882   10.42409680205775   12.72511681377715
H         2.03112008577161   10.55331721943690   12.97329547858222
H         3.40933973685423   11.29366731309487   12.15822964613742
H         3.64937630013099   10.39543442587574   13.65753644688112
C         6.23755067931004   11.19162689604805   11.28958314929280
H         7.10057398291194   11.80321038510534   11.02777275211618
H         5.99693281086670   11.33497666016830   12.34100640735186
H         5.38912704220675   11.49656021849153   10.68454161803282
C         8.28168226038624    9.42511185014836   11.78196754187187
H         8.88065806669916   10.21982691967919   11.33833217008210
H         8.79352716865855    8.47564953126458   11.64164097905886
H         8.16994576399716    9.61190621509552   12.84882904635653
C         7.11247661170554    9.49909128094020    9.23181130632969
H         6.22878459945475    9.69340476877410    8.62718045852374
H         7.52636133183853    8.53892904572207    8.92990822653118
H         7.84557206143192   10.28817522036405    9.06861270213596

