77
CSD_code = ICOPIZ | q = 0 | S = 0 | Stoichiometry = C28H35MoO6P3S4 | MND = 7
Mo        1.13955875761146    2.38178494480672    4.10704748774929
S         0.77787464768199    0.14277194391284    5.39909810436178
P         0.87911263282017   -0.57305572488491    3.52800608993437
S         1.55002061122435    0.69005459810610    2.11103462316204
S         2.22613093880964    4.07120007410886    2.41586925717036
P         3.86650707891260    3.37111788228932    3.31376653780728
S         3.59211627282972    1.80905637775170    4.55543692075021
P         1.09485334421281    3.40622149836246    6.28511376052850
C        -0.69720439940197    2.12316051880321    3.55585061382330
O        -1.75053979880888    1.77434109798311    3.19392841711816
O        -1.06917662266397    4.55667860008706    3.93034951377625
C        -0.29486732119177    3.68285638995020    3.96616922272159
O         5.01307780769530    3.01636582739892    2.25668536494776
C         4.81325581249614    1.94592869978020    1.32651973363719
H         3.84661300085818    2.07675528612120    0.82629981601244
H         4.79142987385501    1.00007754612410    1.88035502988547
C         5.95306429573636    1.97321546558523    0.32886189098848
H         5.96012981357913    2.92326696899002   -0.19868205883999
H         5.82571345416937    1.16784147699933   -0.38847048398573
H         6.90372650730429    1.85005602441758    0.84168041161920
O         4.53890887023719    4.58595580667283    4.07733420971443
C         5.75975826938563    4.40048165319032    4.80694312368058
H         5.74909512999306    3.41101258788629    5.28021698288201
H         6.59278775508537    4.44197814356230    4.09970565899519
C         5.86600871420615    5.50270414973175    5.84232798488636
H         5.83568650652493    6.47262533535571    5.35348931744655
H         6.80214806867054    5.40308693287685    6.38488828634128
H         5.03687943792022    5.44746175060917    6.54341844995028
O        -0.54956048902164   -1.14756232088849    3.19284004165719
C        -0.96119809619448   -1.49617490184172    1.86208989369247
H        -0.74355999552283   -2.55743686221422    1.70959626943134
H        -0.38422187164140   -0.90591312235139    1.14043613457781
C        -2.44397977247439   -1.20777489565410    1.73442484180751
H        -2.63127644826260   -0.15382917901621    1.92225668586625
H        -3.00153091293908   -1.79501457200629    2.45927827993041
H        -2.77885569854050   -1.46049390258372    0.73220869114164
O         1.76464381520213   -1.90604460523821    3.49420654330292
C         3.16568776413816   -1.81920616920356    3.76609708662191
H         3.32422800545999   -1.21287648140364    4.66724317702491
H         3.65484490985306   -1.32118299673479    2.92064132565306
C         3.69761333869075   -3.22531175730316    3.95640999436847
H         3.19171225011166   -3.70152105269147    4.79197700863820
H         4.76413024371397   -3.18693251486126    4.15866908686306
H         3.52288282281856   -3.81454914877623    3.05988759215725
C        -0.58710430140653    3.65010128181587    6.91536287276771
C        -1.52743588513420    2.64730946276429    6.68332600391984
H        -1.23596217759921    1.74808742787264    6.15291695342877
C        -2.82662734685680    2.79880630345781    7.12966589267948
H        -3.55004991996300    2.01885269504772    6.94461852006577
C        -3.20169518098542    3.95205811297240    7.80080998289930
H        -4.22034561431274    4.07413315813106    8.13775173129890
C        -2.27094484057408    4.94990588319539    8.03179365652575
H        -2.56146602935260    5.85225040275268    8.54954731873727
C        -0.96602475330910    4.80281488294534    7.59440450750271
H        -0.24863929410010    5.59121682943736    7.77043009929564
C         1.84586360659730    5.04873596061902    6.46627643892380
C         2.35094962135525    5.48089603729554    7.69314919647140
H         2.32067974442717    4.82114229466595    8.55001785986211
C         2.88586402592608    6.75043179044197    7.81173312066572
H         3.27830958575510    7.07964823436294    8.76314898482531
C         2.91701305174037    7.59909381198189    6.71535002517914
H         3.34172748420271    8.58736018884913    6.81227842497904
C         2.39788695337128    7.18075353027742    5.50184207720700
H         2.41006217177753    7.84150828714038    4.64842584450281
C         1.85895424779669    5.91191068717381    5.37568545377876
H         1.44143842389754    5.59409944126032    4.42933082887771
C         1.91367442598641    2.42651129995384    7.57206352586634
C         1.20092075125594    1.51691001082742    8.34646971433749
H         0.12741769259190    1.45027708862544    8.24754863180294
C         1.87032531738976    0.69955307200314    9.23948132781962
H         1.31331748544707   -0.00539288843287    9.83865844374047
C         3.24762723666971    0.77610871081118    9.35996089636105
H         3.76689162960839    0.13105118176943   10.05354188899173
C         3.96175652109648    1.67862307325889    8.58793203674077
H         5.03688822736864    1.73807919679653    8.67808061629740
C         3.30029482335956    2.49948382347493    7.69549107949835
H         3.85480299092637    3.20350135246434    7.08889912361315

