90
CSD_code = ICOQEW | q = 0 | S = 0 | Stoichiometry = C34H42MoO5P4S4 | MND = 7
Mo        3.53183621831510    5.29259542286718    8.89742143437338
S         3.57029028788712    7.93408418738653    9.09472245640141
P         3.17465470736530    7.61019127778373    7.17599683008277
S         2.11406740682821    5.95642535067484    6.72766538148411
S         4.39795651825410    5.64714646368637   11.38040285959294
P         2.39293893621736    5.85653933441220   11.67872110841373
S         1.22654680517900    5.42866574201613   10.15476999238298
P         3.10334195369985    3.37614561082362    7.55476196292338
C         3.95535133189392    2.09545250440110    8.56420939100886
H         4.90032193518564    1.76130918566832    8.12536939009272
H         3.32570259869154    1.23448977192981    8.81083092344278
P         4.23174417705901    3.30125732692562    9.94325622276404
O         2.41254041799168    8.87248225898448    6.54648700465350
C         1.00557412241873    9.06139737193006    6.66657111136537
H         0.49798905277831    8.28127502838338    6.08814369739503
H         0.82037472530234   10.03531654680584    6.20475500711825
C         0.52189018001783    9.03678900680895    8.10458443693468
H         0.66028998035760    8.04136524210242    8.52964910883910
H        -0.53588345259598    9.28427952489317    8.13937184764866
H         1.08113150029039    9.75426947602744    8.70201968494062
O         4.54896718212140    7.69636559206050    6.39895295922968
C         4.79580814484603    7.02481478128421    5.16248330182629
H         5.86361228987938    7.17206289056785    4.98394062760062
H         4.59817165621684    5.95371355884789    5.29102229166766
C         3.95686807713816    7.57915184839544    4.02857687238037
H         2.90465138206586    7.37069381771257    4.21379845047807
H         4.25131919060146    7.10524131145387    3.09581373048896
H         4.09519976583997    8.65466620633535    3.94907003358198
O         2.13353994727419    7.30755673362139   12.30227633830091
C         2.92655469254791    8.48687467310315   12.19860656778346
H         3.87445466223322    8.25585522030487   11.70073124305086
H         2.37150248881903    9.20214165827630   11.58549486091320
C         3.17918740149028    9.03699152134404   13.59099280232881
H         2.23646675109056    9.20000629032048   14.10858583821002
H         3.71011168509213    9.98110228617897   13.51139029928163
H         3.78508431629366    8.34113157688970   14.16795569603207
O         1.86762360132364    4.94713940095378   12.87411335170933
C         2.33092798985621    5.08686251636557   14.21723857545236
H         2.58831300621612    6.13252270682848   14.40910151571971
H         3.22849821612195    4.47170465894030   14.33635552508841
C         1.22393593642040    4.62875114201118   15.14698243156901
H         0.34432192122689    5.25265973922401   15.01154978752856
H         1.55892681778282    4.69931125402171   16.17832772311326
H         0.95765577353781    3.59950021646176   14.92232094948119
C         3.88389847533446    3.30884975546324    5.91963744257169
C         5.26777209957720    3.19351507726469    5.81613130735275
H         5.86866130454534    3.06779602499034    6.70712937656261
C         5.87731716066793    3.26172212674705    4.57679402126415
H         6.95081733037995    3.17049303973014    4.50203169768261
C         5.11492801958939    3.45772004169608    3.43616041913736
H         5.59482351923592    3.51581641407970    2.47028458570184
C         3.73884639858040    3.58541175651965    3.53578735034438
H         3.14403632772731    3.74573385010429    2.64845819014816
C         3.12179415355163    3.51383621346299    4.77118575835292
H         2.04981637523137    3.62666866386506    4.85830946787711
C         1.48982544863052    2.61641679423300    7.22037334547819
C         0.29742861577462    3.22275231760949    7.58925022445818
H         0.31248121817438    4.19392114154461    8.06353119907862
C        -0.90245392490269    2.57280348552226    7.35125542180841
H        -1.83107320367174    3.04339893969249    7.63803925359264
C        -0.91172046523026    1.32556537540559    6.75085759229643
H        -1.84924360549405    0.82123319928294    6.56681212425572
C         0.28069100772374    0.71827513671419    6.38298004660239
H         0.27053336926192   -0.25506210341047    5.91378025253578
C         1.48077100361030    1.35925849805575    6.61702381610450
H         2.42007331461728    0.90217268488671    6.32909521740400
C         5.94527141574673    2.95205545076409   10.41050745197740
C         6.92820533751447    3.93127932774968   10.42990875683569
H         6.66130819745297    4.95888713351542   10.22631346847295
C         8.23627475244484    3.58291889895829   10.72084035816779
H         9.00166507940238    4.34428482122378   10.73658034590431
C         8.56360728740110    2.26412556593241   10.98834213450090
H         9.58522254401984    1.99648029511882   11.21524092912215
C         7.58302323066899    1.28331102147461   10.96485071487486
H         7.83987214072519    0.25465326408346   11.17344034582895
C         6.27681698752700    1.62288601596014   10.67136160605148
H         5.49965356295895    0.86779296264265   10.65007819558963
C         3.25140890483446    2.57277275621387   11.27774812266223
C         1.92273690322617    2.28032397228869   10.98021077764952
H         1.54313021840133    2.48544277136082    9.98404579762371
C         1.09982878078369    1.74780575341588   11.95304204563979
H         0.06782650856933    1.52676257198750   11.72360808480717
C         1.60171480594213    1.50314220976613   13.22177899225620
H         0.96167056876785    1.07461801224277   13.98017464245646
C         2.91894526006540    1.80980934404144   13.52384091774034
H         3.30189209158420    1.62711344374349   14.51828171903735
C         3.74630683055567    2.35713723319740   12.55925842622888
H         4.77195107515107    2.61683470722491   12.78831319141956
C         5.24568460421558    5.42066189855466    8.06308746912379
O         6.27419666992156    5.54110389911811    7.56134577075820

