74
CSD_code = ICOQUM | q = 0 | S = 0 | Stoichiometry = C30H34IMoO3P3S2 | MND = 6
Mo        4.74262967079718   -2.09599254086867    1.14874886136735
I         4.48327222774092    0.06769356862740    2.81320118493266
S         6.70384244155847   -0.87357087030455   -0.01899887395911
P         5.26845590255448   -0.44008839739499   -1.36477824105650
S         3.41672615001651   -0.73421348732121   -0.63638524594863
P         2.95381036217063   -2.94684760634667    2.44923449669478
C         3.57433452393743   -3.36680661268611    4.14779762021065
H         3.65078274293560   -2.41630327414258    4.69263185490164
H         2.86465043708670   -4.00508252385550    4.68303689538488
C         4.93654822404827   -4.04119074013099    4.01831825187273
H         4.82071735436140   -5.01090634409934    3.51293001374494
H         5.41238058719601   -4.21173963143489    4.98997931636296
P         6.04651718804238   -3.06826790962561    2.88594068316385
O         5.43870713660374    1.01894326964033   -1.96355122956837
C         5.31093842047272    2.11609030711030   -1.04870434311908
H         4.30757997333800    2.10044153624932   -0.60528276038780
H         6.04807544117942    2.00263818497999   -0.24373762262339
C         5.54374493855001    3.39918704492233   -1.81907188121740
H         6.53545897010438    3.39094700172433   -2.26343372851419
H         5.45954685781141    4.24536013400030   -1.14347150804004
H         4.80667104361717    3.49656817024480   -2.61165187744988
O         5.49621865713822   -1.20929160762123   -2.73499878878507
C         5.48210201029146   -2.63882055564830   -2.74312403940848
H         4.52289666835645   -2.99739482914950   -2.34527237704786
H         6.28575781062714   -3.01027920387749   -2.09317660073096
C         5.68330140588246   -3.09775828357182   -4.17274430488864
H         4.88645464130584   -2.70967375652458   -4.80188849509790
H         5.67560142790525   -4.18333719491923   -4.21146884825378
H         6.63462904928385   -2.73060271985468   -4.54905879987121
C         1.33594078649440   -2.18198204847727    2.77827531593681
C         0.96111703074054   -1.05209167644812    2.06137113921394
H         1.64205357718485   -0.61724253803641    1.34098258096572
C        -0.28481918017825   -0.48536678318783    2.26454804685801
H        -0.56750206070082    0.39719193799423    1.71114707780123
C        -1.16289684168759   -1.04876275690586    3.17413542303110
H        -2.13394953786533   -0.60468377653867    3.33563688493903
C        -0.80143802580098   -2.19039645844094    3.87273201953911
H        -1.49254198149116   -2.63854600119800    4.57185928914291
C         0.44051286062966   -2.76148076592841    3.67392187470727
H         0.70961497770563   -3.66246421416208    4.20706121037329
C         2.41601871637492   -4.51851616203764    1.72562497453352
C         2.32990706038165   -5.74221253289433    2.37758799455577
H         2.59336880044285   -5.83807214398674    3.42172620267883
C         1.90559239420569   -6.86310387994631    1.68312639020002
H         1.84813562307875   -7.81544851986501    2.19059881381076
C         1.55908049178640   -6.76827864428666    0.34682325795918
H         1.23463865333793   -7.64788428201704   -0.18943670354492
C         1.62744051350775   -5.54482491287863   -0.30278061703739
H         1.35192809030804   -5.46961307473881   -1.34445032968256
C         2.05247818140848   -4.42447091873207    0.38323002332417
H         2.11707953020768   -3.46046899193515   -0.11010832643490
C         7.05740506707776   -2.00946010492174    3.95084189322462
C         6.77470004067497   -1.70790489626648    5.27651252629045
H         5.91334131744399   -2.13515852421436    5.76994363653963
C         7.59443436360894   -0.83269292063656    5.96799093129448
H         7.37190604622243   -0.59415066394370    6.99741364518015
C         8.68527109631150   -0.25459446646710    5.34233464916143
H         9.31607611993274    0.43223709408529    5.88644237593154
C         8.96044787015512   -0.54306142969132    4.01423940678369
H         9.80236112415679   -0.08105320099282    3.52088537611271
C         8.14718145824454   -1.41412268158103    3.31769663682527
H         8.33452575134642   -1.63377035955563    2.27199563024511
C         7.23938264295596   -4.35649639200732    2.43676418587954
C         8.19805736132607   -4.78542959656726    3.35260510924351
H         8.24836378355937   -4.33122552468917    4.33329184672933
C         9.08883405454058   -5.78063690002428    2.99738548347867
H         9.83539706008146   -6.11058339512421    3.70504585687029
C         9.02796969921443   -6.35209081981805    1.73557322069888
H         9.72939912941370   -7.12639324553436    1.46156292784635
C         8.07220047668490   -5.93002466471979    0.82618566362457
H         8.02563565930793   -6.37638443628763   -0.15637305775527
C         7.17839023414646   -4.93262366931831    1.17467945850194
H         6.42388128214967   -4.58994159230798    0.47609180025945
O         4.81412643637835   -3.39061959296487    0.15905864137223

