80
CSD_code = ICOREY | q = 0 | S = 0 | Stoichiometry = C31H45OP2Rh | MND = 5
Rh        4.40062033455933    3.82126415263103    4.03592377005885
P         4.14812787959927    4.42430114427728    1.87009183336163
P         4.77410772360451    5.86019825462737    5.00074813052120
O         4.46742722888790    3.08927755032390    5.88256300587692
C         5.62486012411191    4.25825420521239    0.75691415721177
H         5.76093715869282    3.18530930285600    0.60059403760800
H         5.43401074377045    4.71763040161572   -0.21533911861665
C         6.87454629536945    4.84148092055310    1.40018399560817
H         7.76907957375330    4.54052902304212    0.85735355791188
H         6.94998633736004    4.48825111024199    2.43032340850748
H         6.83490426675916    5.92835885492342    1.41287598795545
C         3.59744542701051    6.16572268475053    1.50047511800782
H         2.73671701874359    6.35055724613564    2.14879500425244
H         4.40575080292400    6.80818695200580    1.85941341099832
C         3.24366159250210    6.54393911982413    0.06784459609724
H         3.03161964926260    7.61138190515488    0.01773008957727
H         2.36011815661228    6.01354505377565   -0.27694527688853
H         4.06257894039125    6.33646997190220   -0.61651834175719
C         2.95534315962177    3.45812481194566    0.82622744859006
H         2.97543210664130    3.83947883270624   -0.19761368725405
H         3.32156952186181    2.42876883101799    0.80729942119353
C         1.54243052347457    3.48306445987812    1.39158140307457
H         0.87164488468392    2.88573618139144    0.77560448018440
H         1.15410011191541    4.49903667819674    1.43349238464915
H         1.53792593556111    3.07059904416407    2.39910015376201
C         6.16385216341680    6.92481940612726    4.37453095615323
H         7.06236098019746    6.30300396603216    4.40512481721415
H         5.95346127997272    7.12391841376098    3.32178983435475
C         6.41262417587277    8.24037453477846    5.10077052228381
H         7.24809847854975    8.76224109043856    4.63546262351370
H         6.66203519101434    8.07603388078709    6.14521965368043
H         5.54171675377386    8.88865256054886    5.04954376707792
C         3.38602450781966    7.09711311867931    5.05013591034283
H         3.55273209720914    7.79173141760816    5.87665262399027
H         3.39648161210359    7.66470225440438    4.11675642448301
C         2.04467474818639    6.39762650500017    5.21945218746074
H         1.23195367904215    7.12013010259423    5.28352851343050
H         2.04316004620901    5.79057819075297    6.12228845092673
H         1.86049381604903    5.74084580923732    4.36963489738911
C         5.16135959437424    5.76919719669197    6.80524363653505
H         5.12101341146692    6.77050300393277    7.24352434868022
H         4.36789832885152    5.16133629978526    7.24385049716180
C         6.50228698735355    5.10288008000818    7.07789853878636
H         6.64270819535462    4.95593455776175    8.14772724085659
H         7.33099144832543    5.70100755174915    6.70430991711349
H         6.51807697407790    4.13162280585735    6.58981730341682
C         4.05445940473796    1.80526174566667    5.61339921957250
C         4.39346060015057    1.54247135400945    4.12590001620797
C         5.72436065117182    1.81235301920854    3.73113738572632
H         6.43614721300615    2.18424850680811    4.46636033041910
C         6.18696563815874    1.36148223006860    2.49571564234067
H         7.21699264892993    1.53606709312860    2.21652044240518
C         5.35209623505326    0.65499543044640    1.65278811102389
H         5.72048951920943    0.28762273599064    0.70504311596714
C         4.04078434907692    0.39031294208647    2.03355831184958
H         3.39530879678861   -0.18008919489412    1.37986030966171
C         3.56303316889832    0.82961466355318    3.25287770571212
H         2.55389230362663    0.58385702765253    3.55627819577619
C         4.81363674428945    0.79005083397955    6.46052205452967
C         4.96109179539434   -0.53201171479182    6.06008983493950
H         4.53219462696730   -0.86292666689453    5.12405384041218
C         5.65319324132051   -1.42655155341778    6.85638660324612
H         5.76238694246351   -2.45389289366558    6.53836472710266
C         6.20647581390001   -1.01010779827509    8.05601719541202
H         6.74818209986669   -1.71139871910645    8.67452735265444
C         6.06301776321382    0.30675287243345    8.45748080045286
H         6.49200327535305    0.63748929328477    9.39275761029172
C         5.36874932606439    1.20151037208274    7.66356133805299
H         5.24945421121855    2.23323842873165    7.95777571296599
C         2.54433257733668    1.68217111967888    5.83239195624866
C         1.94731600803127    0.70221380509115    6.61128108188595
H         2.55117027475328   -0.05114690181738    7.09546399154643
C         0.57110751088235    0.68769139997494    6.77309704915423
H         0.11500758098463   -0.08026701390122    7.38167182292284
C        -0.21993538446113    1.64620402831436    6.16463432719193
H        -1.29241304812993    1.62806531253626    6.29494659890352
C         0.37076956613137    2.63220511459634    5.39013367814340
H        -0.23802579340664    3.38780700529883    4.91333303312583
C         1.74156671962100    2.64328809839267    5.23053993505853
H         2.23247765249992    3.42529858407503    4.63444903373869

