119
CSD_code = ICORAU | q = 0 | S = 0 | Stoichiometry = C49H59F5MoN4S | MND = 4
Mo       12.08194373363562   12.93632846851249   12.23962102763391
N        13.36161642563301   12.69412418503214   10.77845146301204
N        13.11821435895608   12.41042526162410   13.77517584420859
N        10.27431518874012   12.35422357844941   11.87663396125457
N        11.98748685790564   14.72082523564954   12.35293516954303
S         9.92429890590623   16.20536697465850   11.64840765036297
C        13.74339809201629   11.34880988470676   10.74589528069804
C        15.00129824139637   10.91467498592198   11.19058026615159
H        15.70485330159438   11.64091408013395   11.57239911022708
C        15.35685784201069    9.57752187327993   11.15262910347682
C        14.44717541225396    8.64447744999120   10.66361060699690
H        14.72509732140541    7.60086728791577   10.63081879104801
C        13.19808195825236    9.03951508355738   10.20811133163432
C        12.86300350333985   10.38626445826475   10.24618699147745
H        11.91347225019905   10.71314563136215    9.84293374772243
C        14.17057768854971   13.63273409600732    9.98656271046986
C        15.20218161040885   14.35748386234273   10.86284877035501
H        14.71084321904052   14.70931506181558   11.76754863939403
H        15.61369297263554   15.21248787240777   10.33211552425631
H        16.02661701653672   13.70287693209713   11.13397107787485
C        14.88171594898564   12.92824455394730    8.81997595299931
H        15.65330295871809   12.24571294082602    9.16615147015986
H        15.34764983358883   13.67473946814622    8.18160168883130
H        14.16656285807663   12.36207566793845    8.22622392505704
C        13.79942990317839   13.45302985156690   14.44242418406826
C        15.16824317425760   13.64771919461126   14.27360819555682
H        15.71739953976513   13.00140851507528   13.60399080662424
C        15.83593333311656   14.66057197888115   14.94974158059902
C        15.12195268912523   15.47846200554486   15.81211018865802
H        15.63443074848302   16.26493082376856   16.34728810164321
C        13.75262267912709   15.31685128518083   15.98803149431290
C        13.10348169921317   14.30071313780085   15.30418756814229
H        12.03714094921472   14.16204002023765   15.42328379347768
C        13.14467345196394   11.12788937892798   14.48540112536593
C        14.57603177214523   10.69825621522296   14.85280460072250
H        15.20056048440024   10.66449224245018   13.96329057025403
H        14.54793108240839    9.70390200898574   15.29305955707424
H        15.01744938073206   11.38338676122554   15.57251356524269
C        12.54363779180103   10.04874091278187   13.57235966310271
H        11.78854589948799   10.48887531659648   12.91426215725780
H        12.07047685890541    9.26963501833031   14.16619642994530
H        13.31461781770363    9.59022671688690   12.95696655127313
C         9.72396226264229   12.04404153760794   13.13390692713823
C         9.59163694520058   13.06607072475084   14.08261193826814
H         9.87611725595289   14.07439969939563   13.80122458204805
C         9.04605676059351   12.82081164374342   15.33774363757224
C         8.61550550228796   11.53785013419084   15.64442352870747
H         8.18040119393389   11.33792383680641   16.61295915937470
C         8.73268011896096   10.50189854304108   14.72370821150440
C         9.28425053918695   10.75930606443592   13.48038877322650
H         9.38309756796574    9.94928754644199   12.77228503007835
C         9.34880803318477   12.33712049280047   10.74206139812661
C         8.98409487528010   10.90916556703484   10.28654652145560
H         8.23676825685686   10.47219986007734   10.94417974996176
H         9.86055734735091   10.26413988439110   10.27477550237360
H         8.56683365119818   10.94262339855073    9.28258098148225
C        10.02962482993123   13.08126254135651    9.58982855930463
H        10.92673143563449   12.55514831641087    9.26627383294594
H        10.30558376744093   14.08385660913469    9.91841018186786
H         9.35034062458959   13.16810003711142    8.74455456426136
C        11.61871831475694   15.93471398772173   12.32182637599255
C        12.36859775239508   17.12734585313055   12.62656944273429
C        11.85946394924625   18.41914415895379   12.45144121165146
H        10.86957729924753   18.56225537401466   12.04209338326345
C        12.61343413586055   19.52516046329392   12.78601653753247
H        12.19819769343201   20.51289931135651   12.64332481031500
C        13.89094810577216   19.37991426688946   13.30220138111675
H        14.47390066264244   20.24939833151440   13.56724442064704
C        14.41030808839514   18.10540877939523   13.47421325778359
H        15.40474666874110   17.97468912966155   13.87631284836693
C        13.66459444261616   16.99670154080153   13.14229343361982
H        14.06171236677477   16.00621699758442   13.29154241475471
C         8.90159444837155   16.71398174046752   12.97826746259015
C         7.57145183414412   17.03791102558528   12.66667783831805
C         6.67438360317272   17.49560680428206   13.61529300819849
C         7.08440683845643   17.65466857223790   14.93785362730001
C         8.39226843788976   17.33334128522757   15.27698539730530
C         9.28006079896818   16.86790292549532   14.31521750636887
C        13.22771932550290   14.68095822181750    9.37983845592378
H        12.66103653940297   15.17617339707356   10.16288669940795
H        12.54046191485882   14.21328318687243    8.67955931948789
H        13.80314176128155   15.43182786153875    8.84370333632360
C        16.70009405809420    9.12264578222999   11.64182028009112
H        17.32426325220097    9.96805885224915   11.92117063522838
H        17.21263119149807    8.55307419874586   10.86817653042732
H        16.58715417277585    8.47404162429449   12.51055456298072
C        12.21725524137078    8.03192915556114    9.68649999114046
H        12.72673419776874    7.13419285116197    9.34536565440333
H        11.63932742063843    8.44296727036850    8.86132748679920
H        11.52103558423123    7.74493032281263   10.47596254245234
C        12.32577453569194   11.22005416310312   15.78587661543670
H        11.29363044571637   11.48273265075469   15.56724067116243
H        12.74898739687760   11.97521508561837   16.44466514609423
H        12.34190592353898   10.26461609851672   16.30583450735750
C        17.30287004505584   14.87253973550542   14.72060389129807
H        17.45810685708082   15.38987060489625   13.77323159963248
H        17.83028467073873   13.92167209717192   14.67293737158565
H        17.73750878133840   15.47599961385872   15.51343432516244
C        12.98760573553512   16.24793417245343   16.87517858951604
H        12.13247544388968   15.74909560642088   17.32414480920501
H        12.61476883232911   17.08156419457415   16.28072190944293
H        13.62136774759970   16.64808620591436   17.66300374137541
C         8.04870394990465   13.07623993990001   11.10112182425122
H         7.54410729593843   12.59015465204736   11.93444388285792
H         7.37877427000154   13.08282767102632   10.24533645616882
H         8.26692445239307   14.10490971288091   11.37601890827778
C         8.88968649347445   13.93023535845499   16.33326588680550
H         7.95409149419035   14.46181800697134   16.15383381663187
H         9.70538327978982   14.64416613878693   16.25556336571739
H         8.86278975029481   13.53945574134916   17.34769371225048
C         8.26739660157918    9.12428915401768   15.08839785996835
H         8.79330211007214    8.76983691882264   15.97405673346470
H         8.44104906969686    8.42294243233079   14.27610998737597
H         7.20263605050618    9.13338935448988   15.31776935124441
F         7.15309375975508   16.89199121215639   11.40234506583708
F         5.41491348498792   17.78454830733049   13.26930488203191
F         6.22882259432230   18.09735487922558   15.86757110284596
F         8.80422972929044   17.45661410067670   16.54568161636481
F        10.51132137494024   16.53831020244021   14.73279920027420

