42
CSD_code = ICOWED | q = 0 | S = 0 | Stoichiometry = C14H17N5O5Zn | MND = 5
Zn        2.10362462224923   10.98290811152236    2.76576014501447
O         2.13199249658120    9.26452493856052    1.94083078604548
O         3.54441143962711   12.16001446217040    2.18789804370357
N         3.71772303607565   10.14102668275106    3.91496081447168
O         3.16893606019691    7.30391699608794    1.83830810817021
C         1.10896375689767   11.64777573364908    0.17673049652420
O         5.71448781451806   12.58299158613211    2.37461824533163
N         1.37429230205996   11.22927422225188    4.69182800163482
N         0.73364111472203   11.63446992447561    1.46341520167895
C        -0.53168296791146   11.12789195629657    1.54808671479478
C         2.03882199043003   10.56025085719175    5.63103923651948
O        -1.16685633383400   10.98218225374660    2.56166737756056
C         4.68760604649695   12.07045933785365    2.76055823382030
N         2.28627310385062   12.10433532603401   -0.21189330183253
C        -0.99438949405817   10.80545074616587    0.12298793368714
H        -1.17105803085853    9.73047158795060    0.02239754308429
H        -1.90883497442359   11.34591001568215   -0.13502622727583
C         3.07873530147973    8.45305721268664    2.21505393848331
N         0.13520903626776   11.24662469044198   -0.65425693204100
C         4.67805900267246   11.22434817284637    4.06720440717725
H         5.69156693867027   10.86865938672439    4.28664863495221
H         4.35319341364404   11.89275946440950    4.87003251935225
C         3.16268518496654    9.67021294256748    5.17148537946389
H         3.92862937509282    9.58554498377407    5.95672878635183
H         2.73729145435073    8.67364495709162    5.00359152041111
C         4.22606243674726    9.05617417001441    3.08448709051566
H         4.71265261505005    8.26560820388952    3.66628227698008
H         4.95435924651379    9.45991644489201    2.37639260240035
C         0.27053431652169   10.99577820710707   -2.06503590009592
H        -0.72200706950649   10.86525565196506   -2.49026185875935
H         0.85645929335379   10.09216636834191   -2.25632574487118
H         0.74639217191062   11.84527504653905   -2.55579227547348
C         1.68877546122000   10.65015486897911    6.97344291626794
H         2.24683214122090   10.09658895930955    7.71296868707272
C         0.62024838506888   11.45015805050145    7.33802359658462
H         0.32851238988565   11.53418992572732    8.37410621668451
C         0.34972732488767   11.99977124594942    5.03557285728974
H        -0.15636089986754   12.49909842440555    4.22443380677785
C        -0.06434463378285   12.13938374467519    6.34830986213594
H        -0.90360251995976   12.77168986626254    6.58754864708353
H         2.96289702315195   12.30545438414163    0.53443785266265
H         2.61414062782436   11.95082988824191   -1.14924624033156

