49
CSD_code = ICOXIK | q = 0 | S = 0 | Stoichiometry = C11H23B10N3PdS | MND = 4
Pd        4.31558572763055   -0.11508802239376   12.96177762233892
S         2.84296893930385    0.42604571825060   11.29131470926561
N         3.33888018362721    1.75142877881178    8.98457834858330
N         5.61194597971148   -0.72677258039046   14.66198092741666
H         6.12910308461527   -1.54762116944727   14.35310271908872
H         6.27400130007711    0.01883680001444   14.85813006076785
N         2.81202662714771   -1.35511615803779   14.38972616234906
H         2.23023760533613   -0.62113109801337   14.79361567706244
H         2.20689135798315   -2.02394167777637   13.92241133028368
C         5.10763929303045    1.72873089606336   10.55907674855451
C         6.23752318630046    1.91904074381606    9.46721697974282
H         5.90345390449682    1.84075095424794    8.44171207590156
B         6.24148519046159    0.44567398771876   10.36520040489862
H         5.85915575457025   -0.51773490057406    9.81309269074321
B         5.69555525547372    0.97523891795215   11.95388519312889
B         5.38785601204010    2.71872854903162   11.92903637739744
H         4.45546429812867    3.13809417963321   12.51387622171620
B         5.72153092470687    3.32067238309533   10.30478246010926
H         5.03280145427993    4.06700240191458    9.72171316515105
B         7.42280398488367    3.03059749984010    9.95226459193013
H         7.95067679593137    3.68211887996293    9.12925112564380
B         7.73280620669853    1.28811309205124    9.98661415150017
H         8.45018512595542    0.81851406810838    9.18303929335333
B         7.42428485149810    0.68548576787372   11.64023240823430
H         8.01442451662694   -0.22288837988448   12.10310881205284
B         6.90300420861571    2.09513200432567   12.61796250368102
H         7.12710040039343    2.16389814026919   13.77433730560882
B         6.91448269775241    3.55332414459188   11.57714170122975
H         7.15122584800473    4.62312656306198   12.00282116754626
B         8.17435743449970    2.29061364543003   11.38647208524463
H         9.29713135947106    2.49247917039814   11.67347237472518
C         3.73202849342099    1.38823988015004   10.14181833069577
C         2.07586509645332    1.59452914011605    8.46327118404905
C         0.92594152132865    1.97926508727967    9.15641935855314
H         1.01875379509326    2.35330362209903   10.16550596482023
C        -0.31064970609020    1.89803117333604    8.54901674764539
H        -1.19340221617647    2.20127479156780    9.09472143648506
C        -0.42758462247612    1.42806113367066    7.25123153085518
H        -1.39865234765940    1.36048558144867    6.78260733071769
C         0.70990133707654    1.04964993761424    6.55599617731456
H         0.62618747227887    0.68508051923534    5.54160682191478
C         1.95258585264872    1.14006461597854    7.14838411055279
H         2.84284973273524    0.84643243733735    6.61135899229252
C         4.77508625179293   -1.03700015104435   15.81844840705268
H         4.34239838703929   -0.10072914955630   16.18555652657645
H         5.35058624866498   -1.49841003246926   16.63535405347258
C         3.63993897507321   -1.98695449622625   15.41023864388283
H         4.07441212880428   -2.89733139821228   14.98426983691475
H         3.06916409072564   -2.26584599226685   16.31014715093869

