49
CSD_code = ICUCUF | q = 1 | S = 0 | Stoichiometry = C16H28N3SZn(1+) | MND = 4
Zn       13.41379309095909    3.78621805301516    8.27378164080932
S        12.97633058422055    4.37983623217680    6.13544224990871
N        12.62743347375968    2.04776557833463    9.23798162561668
H        12.32157886766370    1.46019050552721    8.46258019092926
N        12.24110358359560    5.28403400170031    9.32024548104583
H        11.94625261158552    5.72287575419013    8.44623287861860
N        15.26234198918565    4.04906699815186    9.32788257581637
H        15.95142852174780    4.22704823311926    8.59801394959902
C        11.42958299849256    2.31511023457687   10.05703858202536
H        11.75734738819642    2.57838657445423   11.06465949297274
H        10.82940734265366    1.40150692938029   10.13293313314627
C        10.56852822848996    3.45213893261606    9.50185127974727
H        10.57100283374437    3.42900347577597    8.40916016446686
H         9.54164837888989    3.29651021445853    9.83324576121326
C        11.01288773485997    4.83009758975409    9.99163137393317
H        10.20255428725403    5.55191722364555    9.84093556603785
H        11.20642995342166    4.77295927573643   11.06653383173201
C        12.97055490580586    6.31261617018733   10.07850844594719
H        12.91896040597127    6.06128025439650   11.14143761061002
H        12.49983568789612    7.29329877270499    9.94856031409441
C        14.44062103013046    6.39383470415880    9.66703931228417
H        14.84627122850614    7.32336329239629   10.06716195826371
H        14.51954178904234    6.44105426206581    8.57798039831858
C        15.27876385277338    5.23315378777445   10.20844696534172
H        16.31361482840898    5.56297446539636   10.35508750143984
H        14.88673344090958    4.93857550111794   11.18362288090924
C        15.69182645839852    2.82761414592384   10.03261166094792
H        16.51679320089255    3.06987462583970   10.71340412696451
H        16.06422440697654    2.11899617210599    9.28922699125825
C        14.56064097765253    2.16768014465750   10.82353382757765
H        13.96958024400386    2.93045409085460   11.33070444045671
H        15.01435084683783    1.54072673573384   11.59157431701826
C        13.64402201356804    1.28040188880983    9.97981553138530
H        14.24875028112580    0.72791456894272    9.25709834192247
H        13.14777623787950    0.55096323403491   10.63108315449576
C        14.23166658197760    3.42983971742530    5.19654347615897
H        13.74852983969602    3.18761749250890    4.24904756074702
H        15.07374417186726    4.09713346083416    5.01151312474207
C        14.65041205963104    2.19670888626882    5.92037580964819
C        13.75672739195504    1.13798509014105    6.07983153469038
H        12.75954749867360    1.22450077417151    5.67077559922259
C        14.15531512912645   -0.02859362848036    6.70756160552727
H        13.46392852124071   -0.85314043915410    6.80206911803940
C        15.45127810313564   -0.15461151561700    7.18653204789537
H        15.76857660578334   -1.07324723017022    7.65614085619205
C        16.34331860242454    0.89503969982184    7.04040924519061
H        17.35969807607015    0.79211824756821    7.39155805569850
C        15.94474130897194    2.06621076983721    6.41581739051186
H        16.65680240394383    2.86709605113975    6.26907701888013

