48
CSD_code = ICUDOA | q = 1 | S = 0 | Stoichiometry = C15H27N4SZn(1+) | MND = 5
Zn        3.38527208157149    7.50912909404037    9.41260296844622
S         1.16033470349093    7.26570821508966    9.68564778540025
N         4.43624205509928    5.54243901397689    9.44448380516435
H         3.73611343996809    4.80457389647548    9.41736508481442
N         4.74492294847401    7.78080417130086   11.16669393580429
H         4.22449909351296    7.60490262430582   12.02316889169227
N         4.24993427358692    9.52409132541055    8.96987362885862
H         3.60632925252084   10.24989870748539    9.27692163890272
N         3.94858136781212    7.28303043791534    7.26258132854898
H         3.11600192961466    7.43554483437528    6.69646728785099
C         5.19432697900257    5.42486568309709   10.69116432813795
H         5.98862630324103    4.67376451358662   10.61149924595918
H         4.50454774408020    5.11706898293610   11.47955149325320
C         5.80373626250246    6.77522749366538   11.07072239196765
H         6.35394696899486    6.67237908582303   12.01293431561803
H         6.50992472707098    7.08953602050241   10.30089691350871
C         5.22843830066261    9.16264205024963   11.18309664862846
H         6.15006660670267    9.25958163556157   11.76838398887978
H         4.45983213097198    9.78660956477302   11.64360679272130
C         5.47619910066648    9.65685428275984    9.75712336624740
H         5.82837832832962   10.69424845420632    9.78948620273633
H         6.25363157769881    9.05225925700879    9.28845502046971
C         4.44854034304419    9.65547080738960    7.52474411877740
H         5.17544295178224   10.44118945252088    7.28885018788925
H         3.49008523473167    9.91934503536623    7.07290943137095
C         4.91509437371024    8.32753319589810    6.92761376831711
H         5.03477861265127    8.44116790075286    5.84403612849900
H         5.88395009884193    8.05115302301224    7.34627474049008
C         4.42672609644257    5.91877612345081    7.03299425471264
H         5.03142362473799    5.85089648189774    6.12150220436629
H         3.55438391085223    5.27201255388934    6.91786621256711
C         5.24579761082005    5.43621368805508    8.23107829572068
H         5.58184826912748    4.40838391744399    8.05213020195756
H         6.13032741467837    6.06375780243452    8.34933702734722
C         0.81247526906422    7.55582887075885    7.96076692852375
C         0.48512385460067    6.49269765205809    7.13260366189680
H         0.43132908065857    5.49637268273251    7.54511398269082
C         0.21650361456222    6.71771703275262    5.79332390474107
H        -0.04328775867932    5.88397059874175    5.15777544142717
C         0.26294163218811    7.99947889405625    5.25874641404810
C         0.57185410416675    9.05987717898100    6.10687914944539
H         0.58578384727694   10.06574617881678    5.71185786875912
C         0.83902650119791    8.84597441622207    7.44595952356903
H         1.04474692199802    9.67693035288356    8.10681191894796
C        -0.03631570303214    8.25079290800875    3.81420396042760
H        -0.10903513464988    7.31807019970517    3.26142579892744
H         0.73491691594224    8.87173641732324    3.36047814582796
H        -0.98394786228908    8.77964729030101    3.71778966513855

