48
CSD_code = ICUDIU | q = 1 | S = 0 | Stoichiometry = C15H27N4SZn(1+) | MND = 5
Zn        4.17160271610803    3.51988407632490   13.71294436268304
S         4.25613829757373    5.16535538698947   15.26683215707412
N         5.85372933670070    3.48606814310850   12.21311574189201
H         6.27562454256736    4.40952459045480   12.14822017724184
N         3.04784619064366    3.72339667281214   11.75967888900292
H         2.40152855675701    4.50786882479335   11.80419968389990
N         2.55456697873765    1.98872937476819   13.96930034071555
H         2.10276912229884    2.14979977258634   14.86659989570425
N         5.34548136915768    1.76109684248670   14.41018131085129
H         5.92902459859385    2.07378031347908   15.18300766537171
C         5.28620367807985    3.15917634267729   10.90541260654518
H         5.05531019405262    2.09347736930958   10.88716226512403
H         5.99021177999835    3.36601591762016   10.09087098591299
C         4.00778685521730    3.96820205595610   10.68110790925313
H         4.25855746622584    5.03123216914334   10.68370836375072
H         3.58476923324379    3.71635076879170    9.70156116024170
C         2.25559848005565    2.50478349473815   11.58688350009019
H         2.92681133309125    1.69672903448447   11.29410018737215
H         1.50067223724068    2.61932788628012   10.80052451800469
C         1.56472028364140    2.14643619798242   12.90333923893615
H         0.89098855234661    2.95967111139719   13.18082328779084
H         0.96956608969115    1.23616020343946   12.76616083391805
C         3.18295941706763    0.66863878230039   14.01630795557472
H         3.46451141227295    0.38321027233254   13.00165887881066
H         2.49955408901337   -0.09490099969316   14.40514572636979
C         4.42922412963455    0.73060592529814   14.90020642676905
H         4.12770928680498    1.00115113832979   15.91398484551186
H         4.90763289623694   -0.25510317240990   14.93010206515103
C         6.22575150673175    1.32314007022591   13.32824399539726
H         5.62744276396722    0.78429219613173   12.59194969967426
H         7.01022052073074    0.64642447412573   13.68649976890807
C         6.87567711736929    2.54458056846665   12.67732480067920
H         7.48766799870326    3.05355408950202   13.42465716274233
H         7.52603862576419    2.22066576610880   11.85650825753011
C         3.91338545626351    6.69444409660675   14.27838888769350
H         4.54519916374186    6.66885750659381   13.39059976529030
H         2.86002428671194    6.67171436676046   13.99924445151963
C         4.22436636412945    7.88437159573231   15.12754725001853
C         3.24097654463482    8.45826036629027   15.92334705900685
H         2.24131506720543    8.04809181935422   15.91585495926275
C         3.53581195463753    9.54749991832324   16.72294620243130
H         2.76343851695090    9.98812521234172   17.33500783243972
C         4.81756068049786   10.07059012096536   16.73953966568132
H         5.04743717007388   10.92044092244059   17.36382269590935
C         5.80477064623198    9.49875423031656   15.95507478082638
H         6.80663629573962    9.90102179145962   15.96670898311806
C         5.51020482546911    8.41001924887479   15.15517858159164
H         6.28397537138870    7.96238314360696   14.54701422072396

