49
CSD_code = ICUDAM | q = 1 | S = 0 | Stoichiometry = C16H28N3SZn(1+) | MND = 4
Zn        7.13583219925158   12.73714115373843    1.47816973518679
S         7.14983557568935   11.81000989089292   -0.56643267515075
N         5.50911379793361   12.41418101114204    2.82305142279936
N         7.44719346767118   14.82478105626342    1.70899459787823
N         8.74227805005691   11.95762221769133    2.68288886530878
C         4.75791364425740   13.65265716218451    3.10513735159433
H         4.05393276607443   13.47273145815842    3.92679375551166
H         4.17718410474638   13.90819284628845    2.21594945627897
C         5.65988660095388   14.83503785089709    3.46815191066167
H         5.04653573276165   15.56601009418333    3.99596577786307
H         6.43923717313481   14.50870379798886    4.15654302899792
C         6.29122516221283   15.54728019954210    2.27008403687758
H         5.54095480118999   15.64931735493672    1.48279223461030
H         6.60012325763088   16.55508421089110    2.57344286474887
C         8.70022322216586   15.09467765510257    2.43516925543329
H         8.50543644669535   14.99984621777780    3.50521947710329
H         9.01879714229929   16.12643955344302    2.24588983448240
C         9.81704553034297   14.12502266018427    2.03506003718835
H         9.70499312689888   13.84220686614372    0.98478399797329
H        10.77450671131635   14.63703125635469    2.13561514926408
C         9.87670406087557   12.87382259773573    2.91258697332643
H        10.82677279942961   12.35748916181204    2.73993950954609
H         9.86216070406827   13.18920539215126    3.95921388440769
C         8.37366731824084   11.18535807654492    3.88185051846469
H         8.44547012874038   11.84401151238198    4.75162346897105
H         9.07849218213436   10.35970052665031    4.03238562800110
C         6.95204080834386   10.62825673857141    3.81345022889836
H         6.78774387752351   10.12951499802913    2.85471254224945
H         6.86092436875271    9.87123549469796    4.59297788628912
C         5.87500760078630   11.68857046627864    4.05269292273110
H         4.98234951531873   11.21526964831726    4.47779969476158
H         6.24291548273895   12.41245180695834    4.78227519865990
C         7.42908630253761   10.16399157590022    0.07110783817086
C         6.35231571467863    9.34621975214864    0.38321984870345
H         5.34578189348543    9.70712327016820    0.22481720648460
C         6.57406387707593    8.07071781884637    0.86935648062149
H         5.73051785464809    7.43703211688767    1.10063943248057
C         7.86556921986337    7.58683806651492    1.05166442340634
C         8.93448585948323    8.41225079442312    0.72043519425447
H         9.94477935141951    8.04648856142862    0.83271573075102
C         8.72426542647919    9.68875796889741    0.22923905759118
H         9.56053145856590   10.30824500823367   -0.06597448399160
C         8.09535337813624    6.19748001254443    1.55431239497262
H         9.05218052530713    6.11780109202496    2.06486808098164
H         8.10498904352135    5.50082575221054    0.71557757638371
H         7.30185230595340    5.89079457940003    2.23167492420140
H         4.87936052810072   11.79865554363003    2.30839895364816
H         7.58655293683792   15.17832481492694    0.76216074414445
H         9.04811696365827   11.26959233788884    1.98980802628438

