54
CSD_code = ICUFOC | q = 1 | S = 0 | Stoichiometry = C17H31N4SZn(1+) | MND = 5
Zn        8.82172689113047    3.21568359335371    4.26791439703225
S         7.22444739250767    2.11773742637798    5.48101659305954
N        10.71796154735346    2.20713475916821    3.78384180933551
N         9.92663809938326    4.13095991757527    5.95181288053073
N         8.26694022570519    5.24577645040459    3.69548177446194
N         8.64049396446790    2.99014610619859    2.05254203231396
C        11.17128479343499    1.40070471712310    4.92212023587162
H        12.01226800248616    0.75983129600591    4.62501205809045
H        10.34582342723346    0.75882251469120    5.23891793284158
C        11.60816889450824    2.28637237493859    6.08614464961413
H        12.07758180196398    1.64438849754042    6.83226787408703
H        12.36742321263905    2.99395946262196    5.74066151349183
C        10.47565294425203    3.04284747084731    6.77676714668200
H         9.65630274429332    2.35845216422514    7.00853069525308
H        10.85652326386648    3.45030245724850    7.72271296337000
C         8.96247240146740    4.92838856018253    6.72639328710076
H         9.42100299375004    5.24895878897956    7.67146329707370
H         8.11271565952763    4.28392188450631    6.96213571442500
C         8.47900711556133    6.16749650977337    5.97692727348332
H         7.93543438493316    6.78929456364377    6.68880580809316
H         9.33869972185830    6.74673349725991    5.62747052411334
C         7.54543412922464    5.88068325499286    4.80397170019917
H         6.75162414226057    5.20246921746172    5.12516096545934
H         7.08702334629010    6.82120247694782    4.47110390783423
C         7.45875259060671    5.07565563331056    2.48695829920132
H         7.16368791617708    6.03874697015769    2.05416073907366
H         6.55559792907720    4.52055018936600    2.75243928413129
C         8.26516602343182    4.27438525570185    1.46517444131711
H         7.68011335467147    4.15182798866177    0.54766351115900
H         9.17701697691158    4.82663793826239    1.21935050058732
C         9.84843309086245    2.36582380885942    1.51891719260539
H        10.57832926469360    3.14927638672843    1.29502434490648
H         9.65385598961054    1.80835592908817    0.59634728936719
C        10.43683515720293    1.43077241121396    2.57602249916033
H         9.70864586814378    0.65665505221176    2.82895006890168
H        11.33789900216983    0.94465369522915    2.18287202906807
C         6.56272871490150    0.77277603973239    4.42640703700338
H         7.33839533963411    0.01629030054905    4.29979398787123
H         5.75442786270630    0.35097485689627    5.02697975207335
C         6.04303616049769    1.26012460700413    3.11589144358580
C         5.09485284854342    2.27789292530826    3.06955757573626
H         4.73184850906481    2.69707395469532    3.99687926206488
C         4.61335980404267    2.73651664232728    1.85648397934251
H         3.86830005827653    3.51745331984003    1.83480816410171
C         5.07009994410725    2.18338912683191    0.66988570793906
H         4.68436494968986    2.53290659143835   -0.27529203321865
C         6.00862683495073    1.16605328478987    0.70311043672323
H         6.35455513424255    0.71617422818820   -0.21576120098748
C         6.49823456124764    0.71067639738594    1.91928003112852
H         7.21106060319874   -0.10322993263826    1.94021837023282
H        11.47053849171781    2.85671390976247    3.55767865238073
H         9.04803119007439    5.85590747518733    3.45567304499762
H         7.86187230373564    2.33859280097931    1.92255069166180
H        10.70458242571664    4.74940425086161    5.71849786407329

