60
CSD_code = ICUGIX | q = 1 | S = 0 | Stoichiometry = C19H35N4SZn(1+) | MND = 5
Zn       11.48966041019910    4.19466190645651    1.89072768776764
S        10.90810756236255    5.96189140494504    0.58298361358585
N        13.48951314053783    4.89297022823235    2.72196864349702
N        12.95242761739923    3.15631280631956    0.49740531090349
N        10.17903329581781    2.34569391437193    1.62286097247243
N        10.77320422929584    4.24975297107562    4.07125057940417
C        14.39249771978549    3.81534038571432    3.14709094545341
H        13.84997953649199    3.13425671208667    3.80706940281921
H        15.23770305754756    4.23261205826936    3.71181539175709
C        14.95298688628736    3.03782068246340    1.95967925714867
H        15.47986162006792    3.72796747618864    1.29456088050478
H        15.68897617162545    2.32662573730535    2.33779341169909
C        13.91366852594321    2.26219484818533    1.15546756901044
H        14.44278358322366    1.65835572879936    0.40527491140456
H        13.37280921883432    1.58026353996640    1.81595194017593
C        12.34806542620375    2.57554807135341   -0.70910783402265
H        13.13199838805292    2.15995877789068   -1.35738017062326
H        11.85507100161890    3.38923882361214   -1.24533458919105
C        11.32487547725948    1.48476087276574   -0.41927143440568
H        11.76169191651118    0.71393921964483    0.21885342515061
H        11.07214596670504    1.01416933199344   -1.37026070895676
C        10.03348315418535    2.00400399495557    0.19945737512761
H         9.70073030308030    2.89738442732897   -0.33391196965053
H         9.25884502744696    1.23237789428059    0.08753977387122
C         8.85427733979465    2.46617512891415    2.24466614007684
H         8.25301415260348    1.57771338632221    2.00324265854436
H         8.35177025949966    3.33467661832988    1.81250599947519
C         8.91854901072025    2.60751498346612    3.76029915365584
H         9.58760000443056    1.84858743920206    4.17531031702237
H         7.92024125935137    2.41070056503227    4.15349431650620
C         9.33842953522493    3.98868299804632    4.24636825786726
H         8.78089520669556    4.75467435332241    3.70248768543876
H         9.07604877362637    4.07739640406656    5.31073000125499
C        11.13702465192592    5.51005429080306    4.73699992037706
H        10.63926209596087    5.56238254234432    5.71576418713225
H        10.76829932792556    6.33903955009648    4.12864097900975
C        12.63767940868515    5.65778406192159    4.95209938957945
H        12.79235955674739    6.47403384484611    5.65902558473129
H        13.03973700456823    4.75160409568150    5.40932232347163
C        13.41191419729087    5.99939331631062    3.68497459857539
H        12.91761159011349    6.83258294217780    3.18044498777945
H        14.42387480977616    6.32094450474352    3.96824439992694
C         9.19707318250541    6.42444408608858    1.09593081939405
H         8.53046006448948    5.62345357454351    0.77440694815674
H         9.18584764952701    6.51718445621355    2.18164537103996
C         8.83959337395210    7.72166763131983    0.44497044959469
C         8.28227131700904    7.74050844666040   -0.82740707087409
H         8.09343786787288    6.80862406840482   -1.34113604934879
C         7.97101494377582    8.94203827006992   -1.43698340183285
H         7.53531601449383    8.94534338360522   -2.42470581161000
C         8.21772624496107   10.13724814349277   -0.78299176448157
H         7.97417796630580   11.07491699253922   -1.25869123331419
C         8.77972713778576   10.12646416581487    0.48214707170224
H         8.97596094855197   11.05563265267695    0.99583661072504
C         9.09171910816729    8.92498155705888    1.09168400781961
H         9.53303325277445    8.92040355265799    2.07893535935790
H        10.64048001818783    1.55139212830194    2.06767941725647
H        11.26740359457909    3.50641949125601    4.56632969934505
H        13.48442068842080    3.95490777064426    0.15406348094080
H        13.90352920521718    5.30922678881778    1.88878081079815

