57
CSD_code = ICUGAP | q = 1 | S = 0 | Stoichiometry = C18H33N4SZn(1+) | MND = 5
Zn        4.19455237821119    0.41873954525843   11.95683904851141
S         3.97514312489477    2.64700951168268   12.39340624757761
N         5.14922817903664    0.06721501462832   10.03512190504043
N         2.26833819942262   -0.13720061442715   11.06402831139322
N         3.72242334361163   -0.84635320173902   13.66564002395635
N         6.23806919019837   -0.12904434147303   12.62949844171244
C         4.54189452082590    0.99997128474113    9.07719517614188
H         5.11468647457578    1.01244776183639    8.14067879909925
H         4.57255158162328    2.00113986489007    9.51480664290526
C         3.09641525410193    0.62151271598869    8.76706845142712
H         2.75259207634233    1.28681728402759    7.97337218339208
H         3.06046375310931   -0.39228861988088    8.36474896518322
C         2.10792836413924    0.79045212477231    9.92298258046934
H         2.20885475545149    1.80668933503417   10.31045239716004
H         1.09291281369387    0.67937706676914    9.51720467968695
C         1.25950710572116    0.24202515913497   12.07717061259785
H         0.25860420911634    0.13792097439782   11.63610836736147
H         1.41691919271912    1.29656348248933   12.31448096728015
C         1.27999842803922   -0.55190022212539   13.38557211430449
H         1.16130929247939   -1.62037512100825   13.19813965806784
H         0.40144532906458   -0.23295522040364   13.94907335219168
C         2.49649322793441   -0.32075215317493   14.27804814263168
H         2.63425593795610    0.75023254193870   14.44167681812258
H         2.31992916122827   -0.79834407871409   15.25090467942297
C         4.89519187232157   -0.78751354987354   14.54206548745228
H         4.81488399260407   -1.49242412325911   15.37750243667172
H         4.97121230062923    0.22507940634719   14.94812752492656
C         6.14498182764535   -1.09798233798863   13.71665238686207
H         7.02842540388529   -1.08493569899206   14.36428910756340
H         6.05117506798770   -2.09797476123149   13.28299140400828
C         7.03493799486374   -0.51577499802716   11.46904892043275
H         6.86192866645998   -1.57690271031590   11.26760921087227
H         8.10829330406737   -0.36866104582655   11.63151233812737
C         6.57647960542989    0.30510335814456   10.26188077204200
H         6.71119515279726    1.36853294379929   10.47174754309062
H         7.17867441020087    0.04680306263644    9.38341481785836
C         2.02236147108443   -1.50883636519012   10.61829073435527
H         1.01701857921601   -1.60976713930952   10.19558876134061
H         2.12016169342574   -2.20176079587187   11.44883833781056
H         2.74673085603996   -1.79857118032298    9.86281917472803
C         5.14792110335028    2.79872946292707   13.71649897554120
C         4.71094675784301    2.83720336911600   15.03363691769567
H         3.65250286315243    2.79461775357644   15.24608394518453
C         5.62597458471387    2.95213561521433   16.06356669825073
H         5.27368168836483    2.98466089062855   17.08408405089260
C         6.99011690565007    3.03805575666680   15.80685389894875
C         7.41396141648521    3.02845870983342   14.48277097086774
H         8.46679227623777    3.12520050542192   14.25901311080125
C         6.50611007101238    2.91580201952585   13.44459705906007
H         6.84364991500488    2.95864950344369   12.41747364114160
C         7.97097712944045    3.18231194919646   16.92692803436051
H         8.95002416092634    2.80426734722821   16.64252850973224
H         7.62914399113996    2.65552268576691   17.81482148137921
H         8.08073676443757    4.23543997157288   17.18611310332761
H         3.55681676381262   -1.82712826756331   13.44266023146867
H         5.05110757571780   -0.87288459529208    9.65402412611648
H         6.60956794055610    0.74564316337736   13.00824772144512

