88
CSD_code = ICUJEY | q = 0 | S = 0 | Stoichiometry = C43H38CuIN2OP2 | MND = 4
I        14.69202848896869    1.61194272792239   10.28448196254884
Cu       12.57690705395225    2.94363187365782   10.36149226223817
P        12.31567856582046    3.71830171561737   12.53900629700744
P        12.14056560386160    4.81550899082225    9.04013600111948
O        10.86565409200266    5.54493470259690   11.29273916373576
N        10.86551228804315    1.88370022051628   10.08862215721412
N         7.35367419198079    0.29777879582979    8.50426714895590
C        12.90800370245037    2.54801399125349   13.79056808901404
C        12.09153081328400    1.44907679545962   14.05512297835805
H        11.12238783383692    1.38111187608582   13.57369831166486
C        12.52080528233035    0.45518587227503   14.91178554241256
H        11.88269471844558   -0.39186235234049   15.12046439519156
C        13.77948335822000    0.53643623976420   15.48726194865413
H        14.12046680824059   -0.24659163307338   16.14842966723614
C        14.60768082614863    1.60753518259712   15.19738561357343
H        15.59747779065164    1.65657484425717   15.62680342396294
C        14.17983231510008    2.61120625122644   14.34714433696181
H        14.83462145165456    3.43699195650192   14.10653768260136
C        13.44713058184559    5.14066148176200   12.73389523885438
C        14.34897348829510    5.42503106049585   11.71555486141969
H        14.40857184734714    4.76960583391137   10.85566608317391
C        15.16910626042488    6.53537120740454   11.79649320513568
H        15.86398524945461    6.74859102891659   10.99799103344309
C        15.09177095483981    7.37165173395084   12.89647063089057
H        15.72479445879663    8.24456675215757   12.95875038887191
C        14.20531694378051    7.08575018288043   13.92280133793930
H        14.15173180734626    7.73225209179015   14.78722034026531
C        13.38532948274493    5.97602636927373   13.84613076964454
H        12.69498509011765    5.75432958773172   14.64955449812093
C        10.85482812570794    4.45824831932767   13.35188763196158
C        10.26340953786655    4.15747523720289   14.56925637918849
H        10.69846857149844    3.40347331581577   15.20963098354088
C         9.12694476435605    4.84610606678431   14.96272224213327
H         8.67318974298095    4.62408415351640   15.91737388655957
C         8.56888159753190    5.81747180932187   14.14797792615705
H         7.68390176812229    6.34716888245205   14.46723382856761
C         9.13269228128073    6.11180171320446   12.91428550286416
H         8.69033866906043    6.85120629776631   12.26215758871803
C        10.26985741994741    5.42836274341094   12.53010406510738
C        12.13287954011058    6.53575296006164    9.64719956430681
C        11.46824366120315    6.69278996983563   10.87128689620045
C        11.50468047416079    7.89098348477638   11.55884455579254
H        11.01358101278847    7.99006181057730   12.51581297300636
C        12.21524428774803    8.94976190717435   11.01457741571021
H        12.25325591034949    9.88803159999974   11.54713944613484
C        12.88453576530275    8.80688006145921    9.81218627338165
H        13.44320172144511    9.63609036373520    9.40537677556750
C        12.85878300878396    7.59870589433635    9.13445740236619
H        13.40616315124087    7.48096613828424    8.21090803789774
C        10.49695776514569    4.60951341157343    8.28219477946293
C         9.37566893924757    5.37314639956489    8.58009433986309
H         9.45617886699577    6.22502661161771    9.23969920598148
C         8.15247117469579    5.05547287284001    8.01586658644962
H         7.28421358671199    5.65666912767761    8.24755624699949
C         8.03672793123258    3.97805506782928    7.15421932619246
H         7.08021730442914    3.73921273996850    6.71115730476577
C         9.15286869292508    3.21372595419540    6.85043219484059
H         9.06916538654966    2.37517792691068    6.17391382522511
C        10.37300417364615    3.52449266171788    7.41428402840441
H        11.24879446069244    2.92911130883005    7.18682730417363
C        13.13606458966011    5.00373488167627    7.52121916962666
C        12.65030731383959    5.68214464092909    6.40503551140874
H        11.65438935147999    6.10525098041708    6.42350891805366
C        13.44094383668652    5.81266229371948    5.27982005720622
H        13.06170028665062    6.34011407459392    4.41594080854318
C        14.71674400230454    5.26864717040833    5.25636494219878
H        15.32833059862945    5.37095020505155    4.37179400346402
C        15.20227803492776    4.59232797257286    6.36202052066259
H        16.19128337706489    4.15990559217491    6.34612144162167
C        14.41452282676681    4.46015869197578    7.49277272129136
H        14.78896958796708    3.91900453964169    8.34939694755741
C         9.67507384077882    2.36736075923300   10.42685330736545
H         9.67584867405703    3.19186092393938   11.12901651367459
C         8.48700811688475    1.87567481950764    9.94394314516355
H         7.56683050786084    2.32563511534807   10.27525866665492
C         8.49627921804713    0.80072452176765    9.03503974297055
C         9.76342205308184    0.27818383192456    8.71586697286374
H         9.87541128599093   -0.55391189834800    8.04252703398575
C        10.89196415330820    0.84793706896650    9.25504213637560
H        11.87161501801941    0.45919926949233    9.01334453349645
C         6.08642041121769    0.94042411322461    8.75326934781417
H         6.15156640460489    2.01176577572057    8.54740491132121
H         5.76370384222085    0.80191564179829    9.79056570667059
H         5.32886914139888    0.51468196746968    8.09984596397385
C         7.39237242851826   -0.86543772175403    7.65120374518693
H         6.37786011321917   -1.19069512091968    7.43516717707935
H         7.91396936327985   -1.68977055714798    8.14345740666399
H         7.89540097786227   -0.65029174629963    6.70275875938376

