38
CSD_code = ICUMEY | q = 0 | S = 0 | Stoichiometry = C19H14AuNO2S | MND = 4
Au       12.22966644389482    9.08290756538500   12.18610803141101
S        11.57745080790001    6.98703326032315   12.70826195890306
O        14.17266469357891    8.60707211766774   12.11671052808757
O        16.03427156492323    7.46724881048305   12.05442969865944
N        12.70750145076600   11.02669998482265   11.67616709385370
C        12.94551572100321    6.19064887924435   13.48510626206881
C        12.57774120559478    5.13588284847696   14.32174543167244
H        11.52640764193712    4.92298867511876   14.44095199686867
C        13.52871013760700    4.38238744316423   14.97480117398264
H        13.22021977962478    3.57300632656422   15.61988919924841
C        14.87437827815661    4.67084045125537   14.80044153162141
H        15.62899904803972    4.09027017229890   15.30923158456677
C        15.24007731005239    5.70525501434769   13.96697498786937
H        16.27985027903784    5.94413803909522   13.79878207542055
C        14.29555351035264    6.48488414829484   13.29547623245063
C        14.87963456400515    7.56092575428244   12.42327932243216
C        13.94021566154726   11.45800484351409   11.45727593854807
H        14.71535961039693   10.71106726856391   11.56418338443191
C        14.19801457343284   12.77029529427334   11.11260577258879
H        15.20980464113899   13.09709130223193   10.93892191159888
C        13.12311551671452   13.64392160628698   10.99666523407185
H        13.28642600294449   14.67723506442726   10.72929014034477
C        11.84142131350325   13.18085422426219   11.22359551574418
H        10.99693379777226   13.84438066082710   11.13445765149408
C        11.64412595760447   11.84249605157090   11.56777647734874
C        10.40251901894466    9.82882663775665   12.13862235903518
C        10.36888138583266   11.20097336760081   11.82361790330364
C         9.14043088020721   11.85927322037852   11.76694294894690
H         9.09961513801845   12.91173715259646   11.53059051498738
C         7.96869042012285   11.17350034672799   12.01259102634149
H         7.02481410535459   11.69692044269408   11.96577244001177
C         7.98923429489842    9.81795532901532   12.31720846469275
C         9.22013431444290    9.16416582642431   12.37647447769014
H         9.24228824039133    8.11058455154687   12.61387423827594
C         6.72875502913780    9.05512820986831   12.56417291637779
H         5.88750259239876    9.72559443443856   12.71993825110739
H         6.83793107289769    8.40946662142015   13.43273697105664
H         6.50924399581765    8.41893805274131   11.70682835288831

