41
CSD_code = ICUQUS | q = 0 | S = 0 | Stoichiometry = C23H13NbO4 | MND = 9
Nb        6.19414251258007    0.24604202601215   18.95370063824631
C         4.62648210795908    1.10449466311131   18.02590612197577
O         3.77794870142776    1.64454447232768   17.46302177253424
C         5.58984115011104    1.89245766107300   19.95572059465326
O         5.25632529215391    2.87246114202252   20.45593994969466
C         7.61213313038943    1.65658534048681   18.72765513972678
O         8.41621893119378    2.46898203534978   18.56758906990285
C         6.66130608677558    0.85909557701763   17.08829188832344
O         6.90810303436834    1.24897213650855   16.02912453069136
C         5.50347752484251   -1.37194418626525   20.45381699866990
C         5.38760597293943   -1.99476485557134   19.16146716060561
C         4.27701424123492   -2.53239612885569   18.47572479371648
H         3.29496392646180   -2.50322915614033   18.93096056659958
C         4.47404923866921   -3.12905808179603   17.25621846332398
H         3.63269704694830   -3.55311215063002   16.72820066005469
C         5.75194435007536   -3.22202667021055   16.67824861901833
H         5.85935539451820   -3.70716138718256   15.71987274317558
C         6.85968016633719   -2.72723882165519   17.32165244857699
H         7.84747275486290   -2.83430213063444   16.89092613101982
C         6.69848665793468   -2.10048238463027   18.56941048700961
C         7.65085739984486   -1.61839911108122   19.54094231007633
C         9.05466259632007   -1.57989904072049   19.54589178550076
H         9.61071734768337   -1.90321521459195   18.67475272403432
C         9.70393133033196   -1.14786201719953   20.67717988363604
H        10.78279819988707   -1.11752442548265   20.69883718735053
C         8.98685851799769   -0.74518468963945   21.81604623384501
H         9.53487718378653   -0.41221000679180   22.68520486887744
C         7.61499064180100   -0.77381501984234   21.85078235830016
H         7.07306573606648   -0.47182129787660   22.73868056937327
C         6.91134646104952   -1.22621992111103   20.71395051604926
C         4.42125231231875   -1.30419800232987   21.44664735018061
C         3.21686820400130   -0.66722173614858   21.14167997320185
H         3.09547769138270   -0.18186356595626   20.17613504124859
C         2.19119999217846   -0.62898364525731   22.06681649978461
H         1.26553875878638   -0.13045095005142   21.81923822381782
C         2.35081165313537   -1.21719498081027   23.31122798575199
H         1.55015365602696   -1.18075555085926   24.03462031049851
C         3.54186385982463   -1.85004870982645   23.62379781802931
H         3.67084978239342   -2.31381466785640   24.59097009387797
C         4.56820559571372   -1.89972458015885   22.69897259702354
H         5.48802485769809   -2.41521196674985   22.93917689201157

