73
CSD_code = ICURAZ | q = 0 | S = 0 | Stoichiometry = C40H32Zr | MND = 12
Zr       -1.77660344450613    6.95656330851271    3.94215039714733
C        -0.26565274821303    5.35890729795243    3.58775884762003
H         0.64663103198350    5.68813334932210    3.06860248134901
H        -0.70793252675541    4.56796894269399    2.96165335557192
H         0.04966550795978    4.87284127831748    4.52415501439814
C        -3.66480939297348    6.24938230755335    1.08213927846785
H        -4.69555140661334    6.49441916902173    1.30460059401709
C        -3.36574654701597    5.14027707872296    0.32254315889347
H        -4.16511755556078    4.49819568852259   -0.01820438881951
C        -2.04962213635465    4.83350182941899   -0.03873275348964
H        -1.85687788598998    3.95493977188373   -0.63566080981955
C        -1.00938854764099    5.65972833761144    0.32765334869192
H         0.00055965863388    5.44682014911305    0.00678831642400
C         0.89961381162367    8.17510458433680    1.24515694504073
H         1.51874850364368    7.44718730076870    0.73933763659927
C         1.40881550596370    9.40698145451124    1.59462956468026
H         2.43689361652635    9.65003043278308    1.37411480871291
C         0.59736398140956   10.36362436964180    2.21115878586918
H         1.01566087075810   11.32957893982343    2.45209658835284
C        -0.72107977601897   10.10471122373756    2.50951241290041
H        -1.32972926712705   10.87693960867314    2.95846351939127
C        -2.62861444286835    8.34377026612356    2.24140114565146
C        -2.62093001316650    7.08770468221979    1.51364627501454
C        -1.27799493132475    6.79505272968568    1.09314704258650
C        -0.44232104666912    7.89198578207952    1.50399383737998
C        -1.28043417288882    8.86162239364002    2.16094203407444
C        -3.85580508594778    9.08880031213140    2.54365165294340
C        -4.02423581576693   10.41773050961951    2.14436270302355
H        -3.22207777303568   10.92120180731533    1.62520335869877
C        -5.21635159956858   11.07779340438276    2.37145445862966
H        -5.32713442531569   12.10491884444750    2.05440821537934
C        -6.27489227519784   10.42534445469480    2.98154313158731
H        -7.20936561322591   10.94050644105757    3.14610603124222
C        -6.12636940117193    9.10573283524907    3.37613499014254
H        -6.94790729107040    8.59017291003480    3.85222728989173
C        -4.93033838264262    8.44493538373307    3.17009394095368
H        -4.81763578520140    7.41575296449525    3.50282062119600
C        -3.28746905478030    5.35892023099609    4.29640099987808
H        -4.19976235660341    5.68824115386041    4.81548527539304
H        -2.84525615756476    4.56805486569385    4.92264930437054
H        -3.60275044133465    4.87274734172235    3.36004327956618
C        -0.92468818258010    8.34373004293295    5.64279370448601
C        -0.93236504499858    7.08769947758928    6.37063492769894
C        -2.27528992879561    6.79509312160081    6.79120075072603
C        -2.54391666467251    5.65977613494158    7.55670068694865
C        -1.50369040030390    4.83351257211664    7.92305160009363
C        -0.18756206386964    5.14026876222407    7.56174097397831
C         0.11150832236936    6.24938304181758    6.80214877942893
H         1.14223830862633    6.49438386863739    6.57962842387979
C        -3.11094977032348    7.89201520168876    6.38031516116889
C        -2.27286160505045    8.86161586699837    5.72331903497818
C        -2.83219292484251   10.10470240296080    5.37471942745451
C        -4.15062405839610   10.36363780575787    5.67309447272532
C        -4.96205541645938    9.40702764187852    6.28968611476163
C        -4.45285897700360    8.17515535891367    6.63919072104751
H        -5.07198872081252    7.44723231316429    7.14501493172828
C         0.30249373112305    9.08879745503837    5.34057280781649
C         0.47090263539471   10.41772606177483    5.73989142259592
H        -0.33124664763128   10.92116385103351    6.25910097657917
C         1.66303108518177   11.07779437719570    5.51288265858834
H         1.77381001882615   12.10490528278198    5.82998223284269
C         2.72161665523435   10.42535107637433    4.90286639209696
H         3.65608442276514   10.94053242261953    4.73833029665259
C         2.57312566530580    9.10573925806214    4.50826285540354
H         3.39466492584737    8.59021284092389    4.03213225392524
C         1.37707662305942    8.44494148642627    4.71420465413930
H         1.26438693996787    7.41576356805313    4.38143536440765
H        -5.99012205492233    9.65009802419818    6.51023878097003
H        -4.56889874316298   11.32960382714364    5.43218409607257
H        -2.22353513829948   10.87690541190054    4.92572599821202
H         0.61180066805983    4.49815963843365    7.90245039650726
H        -1.69643776970025    3.95496609698054    8.51999880528716
H        -3.55385107833472    5.44687997172825    7.87756760719598

