34
CSD_code = ICUTIL | q = 0 | S = 0 | Stoichiometry = C9H20N2NiO2 | MND = 4
Ni        3.50234329485261    1.25236580577293    1.99301886925179
O         4.94543676159873    0.26563184630042    2.54947026017809
O         7.03087185955945   -0.40161672422144    2.26465629249121
N         1.86482636341085    2.36135836034954    1.46387110581154
N         2.31827647183999    0.48455569696983    3.53700367247258
C         6.15252741332792    1.42115480051769    0.90482891664902
C         1.05773812248991    1.23428773352667    3.53063266001058
C         4.68953432404638    1.76060000409509    0.57275886214869
C         1.53850522280541    2.53213322505220    0.04626291165973
C         6.10514377750082    0.32264159199720    1.96761414568824
C         0.72414887544667    1.68678219988070    2.10879468483270
C         2.05848719037450    3.69058926871375    2.05393400882977
C         2.09007072531657   -0.91501736698397    3.16832837135340
C         2.93164756575853    0.51751941790170    4.86411632258603
H         0.22851838413569    0.62771509894458    3.92652017659539
H         2.33557620101811    3.07258384454639   -0.45826904949217
H         3.04770703330904   -1.43334103176431    3.14363072725503
H        -0.15260140182397    2.35370882219896    2.12713916914874
H         3.88517824498342   -0.00602216866055    4.82212794936900
H         0.60246129967584    3.09438337686619   -0.07277244877006
H         2.83620591697035    4.22160150565650    1.50844959028458
H         4.34760452786781    1.11806950086742   -0.26196985480139
H         4.59788213670260    2.81687242716672    0.27385859676547
H         2.28457747738613    0.04001719916891    5.61257138429532
H         3.12331555900022    1.54745902924594    5.16509973992520
H         1.42948577571872   -1.40979160628435    3.89488967428004
H         6.66433417019199    2.27836591641108    1.34769360965200
H         1.16398816142540    2.10937851944484    4.17654298283121
H         0.46758077538018    0.81328667455226    1.50413691619648
H         2.37413864851062    3.60963476285333    3.09242499099042
H         6.71952657927356    1.10353700439527    0.02602945819347
H         1.13080260361734    4.27822312494990    2.00677891429517
H         1.42835230124717    1.56008776742719   -0.43156929426355
H         1.63850763708111   -0.98435562785861    2.17859568328598

