149
CSD_code = ICUWOT | q = 0 | S = 0 | Stoichiometry = C60H78Cl2O6P2Pd | MND = 4
C        11.56999634962874   -0.37547068787391   10.00077876075546
C        12.81872192668871   -0.82090562704086    9.59452925207802
H        13.51043613739242   -0.11401058161521    9.14823719553145
C        13.17343338605948   -2.14769229694179    9.74152887767473
H        14.14134574486233   -2.48505468365154    9.40681425459987
C        12.26843781610771   -3.02444525540384   10.30506776764517
H        12.52368359276645   -4.06663182037427   10.42582743436325
C        11.02446116277475   -2.57297545744801   10.70896988593373
H        10.34197309500193   -3.28958538465894   11.13301233647337
C        10.63163494262883   -1.24652554093834   10.56874572059965
C         9.24971657264393   -0.76558614022208   10.99313027718548
C         8.53320457545174   -0.13293671278879    9.78984236616257
H         8.93852012709096    0.84804103504259    9.56394918025588
H         7.47296758244315   -0.01584131547067   10.00467171813576
H         8.64625038839057   -0.76644264438269    8.91251907819407
C         8.37046155869101   -1.91000633888185   11.50903662930525
H         7.39951925739398   -1.51146774231090   11.79670294190907
H         8.80699020266152   -2.38282738630030   12.38577888584266
H         8.21212726007787   -2.65770465832914   10.73581149181054
C         9.39867776215744    0.26038784704289   12.12517777207665
H         9.99115455563904    1.11085352975414   11.80474104313322
H         9.88838947065578   -0.19456746251970   12.98429089940906
H         8.41888658278714    0.61971525594401   12.43342794351820
C         9.99442446419070    3.51007087775087    7.77017186695630
C         9.35839267393876    2.55155720107893    6.98591060580249
H         9.47552799164190    1.49197280637820    7.22268045089514
C         8.47362982565447    2.93723460592387    5.99123757658511
H         7.95643665726524    2.19136031680795    5.41019346539239
C         8.24597655618985    4.28112685839283    5.77377828026760
H         7.55414991445805    4.59850345541266    5.00726624756150
C         8.88684197062086    5.22616610470297    6.55459443742687
H         8.68184294214999    6.26431378634926    6.35760032846025
C         9.76918590607321    4.88135080629965    7.57335987199241
C        10.42627081618044    5.94700195076371    8.44172601290199
C         9.99012073597605    5.74685008815798    9.90004183408799
H         8.90893812530502    5.84264030293027    9.98465085003375
H        10.45667284230052    6.49873437303446   10.53296150114326
H        10.28130072988784    4.76923881753859   10.26613683959063
C        10.02535622898377    7.36866875720811    8.03016982505003
H        10.33756399334096    7.58609423138895    7.01152644844276
H        10.52136634744776    8.07815346835462    8.68931966441176
H         8.95276689944803    7.52411777223966    8.12281325236552
C        11.95113551410954    5.84553749887886    8.31777691014989
H        12.32140370411396    4.91430532613459    8.72767148422816
H        12.42432868094194    6.66104152149014    8.86083371916841
H        12.25040351515227    5.89897781610688    7.27311804292415
C        13.42904215341244    3.19661347682136   10.43074020724183
C        12.41503568147558    3.31819950655925   11.36707773750162
H        11.46127477901178    2.86139005864357   11.16276708681456
C        12.61006669773700    4.01436039779628   12.54458734318788
H        11.80550318561942    4.09917192417493   13.25882650873111
C        13.83922002005449    4.59324646915744   12.78349312899902
H        14.01799037057899    5.14421112054860   13.69456844392392
C        14.85032894601009    4.46749458709934   11.84752251948258
H        15.79501602011988    4.93436843846619   12.06727854068076
C        14.68986603377448    3.77304227686862   10.65210381528309
C        15.82208167215179    3.69054600371228    9.63563419104729
C        15.44703675021517    4.53697353690140    8.41201454314073
H        14.57897752069231    4.13095326034246    7.90304351387441
H        16.27402073832268    4.55183512374509    7.70548355761282
H        15.22846295354358    5.56019241794368    8.71039515407148
C        17.14643581304088    4.22455135100175   10.19611381171494
H        17.92743027401602    4.08760172548691    9.45099870286276
H        17.44029983200305    3.68642680300071   11.09487314959592
H        17.08701160085838    5.28792384374850   10.41472955022699
C        16.05560251716615    2.23700693991467    9.20385013650242
H        15.22777197466713    1.88765347551698    8.59573128700804
H        16.15999507970070    1.59009351384621   10.07382052758525
H        16.96641089512597    2.17490985094973    8.61102826406795
O        11.25437724511658    0.96196436364105    9.84675604253406
O        10.81850476892453    3.08686075954518    8.80383865463809
O        13.20576265758805    2.49437352481726    9.25190999073992
P        11.85565629414725    1.87237400004155    8.66009618626195
Cl       12.99456680172004    3.09079918555581    6.14728516806245
Pd       11.98416569004876    1.08387828555357    6.57733952921873
C        12.39760752162815    2.54233293858831    3.15329554025666
C        11.14900108293719    2.98751566934530    3.56019908179978
H        10.45798284436308    2.28072335108694    4.00774350758574
C        10.79350394120933    4.31398778405500    3.41225573684479
H         9.82572063045576    4.65116090051967    3.74751558229504
C        11.69753882374765    5.19068576552878    2.84709084550827
H        11.44160224108186    6.23259940279780    2.72546318477409
C        12.94146726209673    4.73951319479196    2.44270934090224
H        13.62329725245832    5.45606425076815    2.01750601422552
C        13.33510048250991    3.41341210891554    2.58390813741025
C        14.71702717662711    2.93288833177057    2.15907694612944
C        15.43437267196995    2.30154139069256    3.36254145951058
H        15.02968944412805    1.32054799919758    3.58949471424223
H        16.49460407689925    2.18486801356024    3.14746792454465
H        15.32125806345697    2.93572239425670    4.23936340329008
C        15.59552969613922    4.07731635884559    1.64187938516048
H        16.56633737889726    3.67885651973475    1.35364079295727
H        15.15819837623836    4.54948122770166    0.76519241498443
H        15.75430197885967    4.82554171437666    2.41451489080998
C        14.56796052378352    1.90613577172954    1.02777984420196
H        13.97656364863337    1.05531382543574    1.34920401064748
H        14.07699589758978    2.36017671202793    0.16892151572873
H        15.54774830393808    1.54754945693774    0.71872532731708
C        13.97458251851181   -1.34222701460334    5.38496586587303
C        14.61054639698014   -0.38349054073833    6.16901096562417
H        14.49349342607292    0.67602704764011    5.93190387867210
C        15.49525804622734   -0.76890759409088    7.16382624835630
H        16.01246997935177   -0.02287689890699    7.74465506369553
C        15.72292652443043   -2.11274343814827    7.38163293559056
H        16.41468919494879   -2.42989650777958    8.14829168172931
C        15.08219730203645   -3.05799412057274    6.60095717252388
H        15.28724529034097   -4.09609048542494    6.79817671575825
C        14.19992220281296   -2.71344244321409    5.58204117875726
C        13.54304800731798   -3.77925988151500    4.71372442550142
C        13.97924141559206   -3.57911663511447    3.25541705480573
H        15.06045088782378   -3.67466884210763    3.17087801986668
H        13.51288911761114   -4.33114999253407    2.62253023780896
H        13.68787323872886   -2.60159580499316    2.88922998515710
C        13.94421949148814   -5.20081819897053    5.12538988266817
H        13.63199108726646   -5.41825026721106    6.14402523097465
H        13.44839320202577   -5.91043721394517    4.46624954925303
H        15.01684828501256   -5.35604505550131    5.03282172594356
C        12.01815390005496   -3.67806659467079    4.83756815769592
H        11.64775015063296   -2.74691542964582    4.42760918972865
H        11.54514283684775   -4.49367132811913    4.29450391895954
H        11.71881491056706   -3.73152445606347    5.88220617162728
C        10.53886955396874   -1.02935615495033    2.72500854394319
C        11.55247095544828   -1.15118886681542    1.78826608463287
H        12.50649479051236   -0.69480847251605    1.99232723715111
C        11.35670199957441   -1.84710809298518    0.61073858064190
H        12.16095259556965   -1.93216498162004   -0.10382267427294
C        10.12720403945492   -2.42544130761811    0.37223888007011
H         9.94783720758741   -2.97616453688910   -0.53886441167603
C         9.11654446954394   -2.29951628469636    1.30867300003597
H         8.17160399995022   -2.76601944340140    1.08922273408337
C         9.27777061761152   -1.60536422350758    2.50416699347667
C         8.14618228576455   -1.52314241515689    3.52137569602057
C         8.52131602130466   -2.37157325239334    4.74359558916314
H         9.38994276991997   -1.96680505163812    5.25261192321244
H         7.69471672925953   -2.38681488610896    5.45056667822205
H         8.73901934104264   -3.39453030108461    4.44368436321970
C         6.82110712967198   -2.05533294512286    2.96084964841303
H         6.04049886337419   -1.91839861019512    3.70636914749452
H         6.52746096937495   -1.51605401335739    2.06270930269994
H         6.87942647455516   -3.11854625822444    2.74117635341711
C         7.91401491828899   -0.07007242132804    3.95551161557436
H         8.74168100144420    0.27721329518668    4.56506364292797
H         7.81116386106207    0.57850579121845    3.08659579667501
H         7.00275404495950   -0.00794637221760    4.54763844132536
O        12.71397093966387    1.20516368660996    3.30799827008222
O        13.15047215293320   -0.91929179875551    4.35120629767721
O        10.76284069083641   -0.32735692883820    3.90381065006396
P        12.11306425400295    0.29495168636513    4.49493299206197
Cl       10.97401853879976   -0.92326512174603    7.00740524485324

