56
CSD_code = ICUXOV | q = 1 | S = 0 | Stoichiometry = C23H24MnN2O6(1+) | MND = 6
Mn       12.37650962044949    2.07381660866368    7.17012309621431
O        13.96949688579265    0.50751432516276    6.90532942169195
H        13.62696417195004   -0.30536465456822    6.50924401504821
H        14.34446822837092    0.25864014213124    7.76022175745795
O        10.75180212535672    3.54726525848397    7.58370747313530
H        10.28856302694715    4.01211692319688    6.87386778687710
C        13.93013848694552    3.96895124513882    5.64752225422675
C        13.03106266123315    3.42829979402305    4.70169104620816
C        13.12353198396910    3.81367609371557    3.36487932235732
H        12.50364890527621    3.34889185727812    2.61424518921127
C        14.03233589883883    4.78416752189915    2.98896022088305
H        14.09777295360738    5.08181187418029    1.95455723297739
C        14.84867386112583    5.38624432524643    3.93652465934706
H        15.53277734545066    6.16528960863598    3.63973057978639
C        14.80443324893634    4.98293367520555    5.25743114128014
H        15.44023268808707    5.46845817693253    5.98090624923753
N        13.83418443565360    3.40470258963643    6.91643170019064
C        14.83725882666769    3.51266347838418    7.75059778751719
H        15.74921004598146    4.00131403591463    7.41437965406089
C        14.84893375546014    3.05561330386485    9.08983861207334
C        13.71125632484456    2.38302670918596    9.62830450085613
C        13.72692348022265    1.99584723756034   11.00720410460770
C        14.83894372001315    2.25263594667712   11.77647249838846
H        14.86692736597474    1.95979904905162   12.81333428577055
C        15.95179114839683    2.90705731892233   11.23102147026980
H        16.80307809371243    3.09821420044257   11.86430008418669
C        15.96042425657427    3.30555991549777    9.92368106046303
H        16.81209680599012    3.82549912322729    9.51386288166065
N        12.11265777257772    2.52967238019652    5.23970467783648
C        11.00686662890834    2.25872748668398    4.59330200113768
H        10.80077975746241    2.77778989954575    3.65915904421132
C        10.02326962484159    1.32642537858442    5.00721114697993
C        10.21083497929703    0.57283637042329    6.20256770097527
C         9.22004899069455   -0.38989928577523    6.57407072697797
C         8.10253165600932   -0.55825164477600    5.78629833983631
H         7.34383655185571   -1.27328923214604    6.05960860471331
C         7.93438086160526    0.18648609810435    4.61201578514687
H         7.05294499376202    0.02144382375677    4.01361873975066
C         8.87071146055036    1.10364722608003    4.22337969182283
H         8.74464547469572    1.66470019116795    3.31056159684138
O        11.27760938448248    0.71678562170994    6.91503655989583
O        12.66763192805404    2.16844247794282    8.90610659261453
O        12.59525958213771    1.36963776656253   11.41690857277393
C        12.50985301049461    0.94984871547824   12.76074550396838
H        13.28144494568824    0.21184593429005   12.99854325866075
H        11.52811475339204    0.49145821435775   12.86294089116770
H        12.58889057259613    1.79650610513787   13.44850505164571
O         9.49394724006230   -1.04956551419403    7.72602879439978
C         8.57180277146791   -2.01289689485174    8.18512202198620
H         7.59702934633162   -1.56405440708719    8.39708205455595
H         8.99525480444330   -2.40769519694737    9.10657986365871
H         8.45118675500159   -2.82589405261965    7.46340731987974
C         9.79012038596022    3.21061420905533    8.58335789480579
H         8.99914199908325    2.57655114060633    8.17421205353378
H         9.35616686236606    4.12267288044032    9.00086967863349
H        10.32289655435033    2.66990862458362    9.36458574560461

