55
CSD_code = ICUXUB | q = 1 | S = 0 | Stoichiometry = C24H22MnN2O6(1+) | MND = 6
Mn       -2.88223864721936    3.09722347440241    3.36608806694321
N        -2.75835089884085    5.05038752108674    2.25613143607129
N        -4.54650249771541    3.05863126142221    1.85233604412741
O        -1.34886003877255    3.54157919619633    4.10851462957751
O        -3.59243609377142    1.62889019591087    4.02985360310151
O         0.33698587188913    3.43601287545237    6.06154188196368
O        -3.37973605488202   -0.61515466674594    5.28978522477067
C        -2.19268522808941    6.03343667187728    2.87101302216738
H        -2.44431345525696    7.05552291350874    2.57841404802596
C        -1.26138681350758    5.93135883492109    3.94986247200290
C        -0.64631321957593    7.10365497599723    4.42794990723887
H        -0.90978304426462    8.04976756688680    3.98188287708870
C         0.29194490133827    7.05713063897449    5.43012586439513
H         0.75213844290869    7.96612473758419    5.78311672927943
C         0.66394976776560    5.84229828336851    6.00156310186724
H         1.40791856530836    5.83399658421973    6.78180858789666
C         0.09877141786791    4.65625466920084    5.56653858547390
C        -0.88591146709305    4.67629256414685    4.51915496586966
C        -4.97017508564214    1.89701379486780    1.48393610151822
H        -5.46134537277579    1.79664647177441    0.51317326501112
C        -4.83561217966272    0.67712598683272    2.21556224180232
C        -5.45807677842356   -0.48365334429135    1.71898862205415
H        -6.00370649431329   -0.42591949401195    0.79032208852072
C        -5.39908750318343   -1.67193956746560    2.40543425358615
H        -5.88258514077616   -2.55041706803305    2.00911393036008
C        -4.72075255619995   -1.76032908931223    3.61908627592781
H        -4.69551431939611   -2.70395527846999    4.13991399677031
C        -4.09699287475271   -0.64985957103238    4.16047118084582
C        -4.14309147146954    0.60620895164515    3.46269385970280
C        -3.68737335219626    5.21303228273945    1.24179662544811
C        -3.69879775029380    6.31382925200635    0.38023505848813
H        -2.90953164962085    7.04706379805011    0.44207778094525
C        -4.70128060299222    6.46290016479835   -0.55685722653431
H        -4.70229007712433    7.32310903993681   -1.20753711128015
C        -5.71669734891508    5.51942700501995   -0.64966947391344
H        -6.51451661381363    5.65323409261419   -1.36306081014075
C        -5.69876961664077    4.39865234223701    0.15586182111521
H        -6.49453766579696    3.67351200430858    0.08296876985068
C        -4.66628476143919    4.20025255470619    1.07724684435498
C         1.17412072396616    3.28600786604111    7.20234661629379
H         0.80238138165633    3.91632837306955    8.01984941783403
H         2.19760592928074    3.59255561818441    6.95221763465952
C         1.14014880613405    1.82068836961544    7.60246349926153
H         1.76901231358883    1.66395999342602    8.47364694417445
H         1.50300213965769    1.20294835796528    6.78591016769986
H         0.12247234615556    1.52350484306042    7.84021194946838
C        -3.12541449539703   -1.81944657289210    6.00382288988046
H        -2.66406933641646   -2.55629271021693    5.33446468476443
H        -4.06896557983107   -2.22739045552313    6.38777240680126
C        -2.18640938290779   -1.48021285276307    7.14902569129284
H        -1.96441094305165   -2.37739682786791    7.71888670955595
H        -2.64794602994108   -0.74732850302350    7.80464002027343
H        -1.25962088279358   -1.06714247989481    6.76037860058067
O        -2.21859801064783    2.40643669711279    2.20993854927908
O        -3.71068127211197    3.99393765637638    4.24028507588513

