109
CSD_code = ICUYOW | q = 0 | S = 0 | Stoichiometry = C50H55N3Ni | MND = 5
Ni        1.94870831149120    2.28537300864977    3.63793611236896
N         1.14979955526920    3.70222433643489    4.86871221432896
H         1.67383633642448    4.54444371710118    5.10994740430496
N         4.03768117543778    0.80865714719614    5.15149178122969
N         4.96262333396743    2.45642607613869    4.14749160441440
C         1.14306844699902    0.80491561415778    2.54670161407898
H         1.58691604170107    0.75144845983399    1.55421902064513
H         0.99071128017953   -0.15633708291812    3.02810334353287
C         0.25049484194103    1.83927647578664    2.83397088722646
C        -0.77776585270022    1.74124839381305    3.86305503113615
C        -1.05206354484421    2.81598834832687    4.66303028744692
H        -1.97519508007290    2.84943499348668    5.22838976748994
C        -0.13404521154005    3.89943474086360    4.88736185314712
C         0.26205887122193    3.06869949585244    2.01042767281028
C        -1.56083416471399    0.50660076925183    3.94891388357830
C        -0.70846421271757    5.20489243878490    5.27173581005499
C        -0.91256607912548    3.67936729547638    1.57477642619106
H        -1.86721240935854    3.23405029099774    1.82360028822722
C        -0.86067717701476    4.84026308579110    0.82653577477770
H        -1.77797161804571    5.30030911352496    0.48581999493567
C         0.35861234107818    5.42004678682183    0.51245038532908
H         0.39079166175651    6.33171698309148   -0.06661490028134
C         1.53410068754839    4.82945134779023    0.94847935687071
H         2.48951600188949    5.28379443011361    0.72130078572117
C         1.48824954908979    3.65967085357630    1.68264072940690
H         2.42493814240197    3.18694580232260    2.03241878296648
C        -1.81551080676069   -0.25595340647702    2.80835064717854
H        -1.45399752217121    0.08836552362972    1.84987545900164
C        -2.53268496357556   -1.43348019654209    2.89225220447116
H        -2.72418305455541   -2.01063728378496    1.99868693644007
C        -3.00624824375751   -1.87649804345917    4.11636518744522
H        -3.56150007344716   -2.80103276253876    4.18182690158940
C        -2.76447378548442   -1.12671221556963    5.25561466014705
H        -3.13063320011803   -1.46792110246324    6.21376930847714
C        -2.05283554030926    0.05414145577013    5.17317039579510
H        -1.85649192994544    0.62563258225346    6.06812497606293
C        -1.86763681306885    5.66137881994090    4.64823539111775
H        -2.33584798758073    5.04896379100110    3.89153441590684
C        -2.39897449646325    6.89496269246974    4.97292548465134
H        -3.29325153043929    7.24314584303356    4.47660423759354
C        -1.78845297221485    7.68486913540579    5.93346596459517
H        -2.20721479586390    8.64676411639006    6.19057924568576
C        -0.64023577084692    7.23672998231970    6.56515691367924
H        -0.16512429124999    7.84706576204594    7.31979572175702
C        -0.09986572307126    6.00883866914848    6.23311075840554
H         0.78771017863261    5.65880330227310    6.74287915598937
C         3.77609980032166    1.81712868233672    4.28514186390875
C         5.35167086855392    0.81656045795357    5.53891769232635
H         5.75810197594628    0.08894356154101    6.21175319646096
C         5.93655719497179    1.86115617731416    4.90872397314854
H         6.94486663362150    2.22095006030108    4.93358967929923
C         3.06827239193719   -0.18249213951524    5.46861856523318
C         2.06021504676420    0.10898551980804    6.39561234734223
C         2.09015178215825    1.41632876383437    7.15438928933906
H         2.38816631318357    2.19820508115228    6.44568005605988
C         3.12596497316896    1.33160901356065    8.28096867754334
H         2.86689954360401    0.52871600927944    8.96930869328854
H         3.15122937853667    2.26635545581193    8.83727619228977
H         4.12236549350463    1.14028704699740    7.89071548836663
C         0.73549031408011    1.82387030821043    7.72541971779799
H         0.42496466788478    1.16414346074148    8.53311339445114
H        -0.01443290585312    1.81650109607822    6.94002565759393
H         0.79778741864029    2.83434719775190    8.12486752920082
C         1.08524202053584   -0.85212806170064    6.61764599792552
H         0.29092505878523   -0.66325258583619    7.32034831694271
C         1.10639805213110   -2.05668502871906    5.93938082765339
H         0.32439183990774   -2.78218938999591    6.10988629522118
C         2.12364380546048   -2.33679694825811    5.04997548778322
H         2.13391957459715   -3.28603015363325    4.53617827698971
C         3.12513870658780   -1.40716193981957    4.79966435031591
C         4.23672420834360   -1.73839244744275    3.82892655721195
H         4.92055887254983   -0.88838157112847    3.75672282732167
C         3.68473753441200   -1.99769214748397    2.42670886979244
H         3.14091010602688   -1.12489913839012    2.07713103495623
H         3.01024079727565   -2.84995040567216    2.42042056062407
H         4.50123365276788   -2.20116301413391    1.73649332840148
C         5.03945847602421   -2.94119755653150    4.33173847354523
H         4.42158579625726   -3.83480625008767    4.36516703482901
H         5.42219528033521   -2.75440355111158    5.33322415357844
H         5.88212772729242   -3.13204170528907    3.67045917302343
C         5.18415286132430    3.53681956513652    3.25250584424161
C         5.25718271299676    4.83761506882100    3.75084845141268
C         5.01775204202537    5.12589773317523    5.21430626017983
H         4.56269691922085    4.24078069800163    5.67003644471489
C         4.04589677895925    6.29436430629358    5.39594983221924
H         3.17991334208955    6.17171036775999    4.74893734867090
H         4.51866796193710    7.24307731494450    5.15490834191169
H         3.70969389597468    6.34138494136558    6.42976634663061
C         6.34094988453300    5.41680355582600    5.92676714218012
H         6.16344405816773    5.62437874425834    6.97968001344488
H         6.83051061006164    6.28027133120092    5.48156382331200
H         7.01541419005358    4.56683392367531    5.85360143853354
C         5.54736676528117    5.86603608887032    2.86353887619182
H         5.62560533356052    6.87953140156633    3.22468115090600
C         5.73374984667096    5.60630764771897    1.52049017494312
H         5.96554952551006    6.41512928405323    0.84285457291275
C         5.60746422471322    4.31766501359592    1.03475567632929
H         5.73411952779686    4.13811054882394   -0.02067617172723
C         5.32208398717787    3.26048892494666    1.88647323099939
C         5.17832456724341    1.84474164121060    1.37370124035477
H         4.45904741645659    1.32497646136750    2.01843973358127
C         6.52584934853229    1.12153518083981    1.46147911543163
H         7.26769131294229    1.62994338930599    0.84815212896816
H         6.42494790781419    0.09868764077598    1.10556273235857
H         6.88922293045454    1.09416910327828    2.48647927705264
C         4.63443963776497    1.77635131358999   -0.05262602883632
H         4.36815939881901    0.74823033414087   -0.28895063403116
H         5.37430937642882    2.10346250072945   -0.77967173893798
H         3.74403332918094    2.39250252967550   -0.15416808162115

