47
CSD_code = ICUYAI | q = 0 | S = 0 | Stoichiometry = C18H20ClMnN2O5 | MND = 6
Mn       17.89774381200084    2.81648244398891    9.48083291896979
N        17.25500013426418    3.82581306169928    7.91302487658119
C        17.42744280472682    3.14830820802655    6.64482598536586
H        18.40746051455070    3.42414721127776    6.23513074260431
H        16.64573841761809    3.42233047259083    5.92660522656920
C        17.40813596682541    1.64673865409682    6.94722094163737
H        16.37008526410954    1.33591001869979    7.12817163501449
H        17.83281578074497    1.06180407632221    6.12282590911106
N        18.13989932007285    1.46087319271713    8.18229507281616
C        16.56043038963486    4.91384724466628    7.94578814567237
H        16.09400139678211    5.27891160424699    7.02845411769270
C        16.39480570770727    5.72288605125614    9.10978087718347
C        17.12194227314319    5.40858116388435   10.28841311337974
C        17.00938896016995    6.28561229420065   11.40984579540761
C        16.16326182408561    7.37162477202607   11.35347046122401
H        16.04836805990026    8.02156097474398   12.20668615248406
C        15.44516576429113    7.65635639255159   10.18888184963143
H        14.79459553112737    8.51710915344580   10.17294234993128
C        15.56906305984601    6.85886849437161    9.08227609096241
H        15.02177582566294    7.08288300770014    8.17895860939109
O        17.92275989946571    4.39328030146096   10.34747535394211
O        17.77425893492408    5.93183524137213   12.48045115774572
C        17.58416550251703    6.62063037344472   13.69027259044527
H        17.88534096812297    7.67120205147816   13.60770036861204
H        18.22158985207120    6.12041137325143   14.41777652758745
H        16.54299616007839    6.56630449968116   14.02320566821522
C        18.86389750075829    0.38606070966932    8.31841893437521
H        18.96184768772672   -0.29203683003565    7.46958936064187
C        19.51184191998584   -0.00231959708352    9.51861451297732
C        19.27206551670719    0.71961793035872   10.72970064103668
C        19.92145097748514    0.26079554766856   11.92649702117565
C        20.72996346905960   -0.84845535685604   11.89870427162869
H        21.21905864924604   -1.19580051500146   12.79502484795792
C        20.92649516770496   -1.55962075366203   10.70533080370214
H        21.55722433744855   -2.43507519834497   10.71860139687399
C        20.33015348351955   -1.15163845706080    9.54719975658674
H        20.48192584960450   -1.69893598573116    8.62857694796172
O        18.46207884250359    1.71404867565019   10.78839488604972
O        19.67908818467915    1.04099538344712   13.01708207075447
C        20.19519557509587    0.63300279215072   14.25695259184030
H        19.83663818094204   -0.36372396881346   14.53362679741563
H        19.83181226906934    1.36043718882387   14.98103606991334
H        21.29140101566505    0.63648134215255   14.25875027768035
Cl       15.79500354838136    2.22761431738375    9.83681091820472
O        20.16361143436167    3.37294242867140    9.25298149913802
H        20.61600591402770    2.64641558147206    9.69797058854792
H        20.21490835158574    4.12988243194040    9.85152326736186

