76
CSD_code = ICUZEN | q = 0 | S = 0 | Stoichiometry = C33H32F6N2O2Pd | MND = 6
Pd       10.53945373362975    3.89254403599617   -0.65621431675265
F        10.69203619634950    6.59505164726753   -0.45326263022131
F         9.12502213660679    5.90542647009998   -1.78705946739015
F        11.15496092162341    6.01064876237792   -2.46599835680942
F         8.02826817469920    5.68846322005716    3.61531034594276
F         8.84070809782288    3.70570975951657    3.81875508183942
F        10.09660910843638    5.42334141706356    4.16179316758032
O        10.62317329801035    4.36137899381236    1.64671131336449
O         8.70959858305874    5.30521738545539    1.03404954168939
N         8.35984053815390    3.08498170247275   -0.43957120258724
N        10.65289947042459    1.96117022211152    0.28012889374397
C        10.39774827785199    5.67378287763202   -1.38906829656156
C         9.51933076417360    4.89882201210875    1.85418564576268
C        12.52798576934820    4.19050782491207   -0.82373995193092
C        13.30390930847070    4.75910318514389    0.16068130118009
H        12.85371569376580    5.13713130724953    1.07118163395568
C        14.67972719383202    4.84481143921462   -0.03200318273820
H        15.29784446697328    5.29150053631781    0.73229860916267
C        15.25128254644073    4.36854573665771   -1.19947606317405
H        16.31925370192275    4.44328961205796   -1.34266982532439
C        14.46545803562247    3.80470601804316   -2.18958315232529
H        14.92061249459812    3.44328435931093   -3.09932654468285
C        13.08746577871231    3.70946338379551   -2.01456734498008
C        12.11821796240802    3.16230870480280   -2.96181767624749
C        12.40569591243594    2.65072291260113   -4.22355799089804
H        13.42638770873609    2.62089108564778   -4.57366861802780
C        11.38396219557838    2.18913793441325   -5.03368873821016
H        11.61041031535345    1.79758738144864   -6.01437809583504
C        10.07264678649137    2.23594917451658   -4.59574121264912
H         9.27527634588137    1.88342623286584   -5.23344921975296
C         9.77072085437590    2.74244144385771   -3.33537427498869
H         8.73750245391199    2.77584293076253   -3.01317528721991
C        10.78648825866154    3.19734347248081   -2.52205329296405
C        11.81385258001717    1.38081053758689    0.55520541871324
H        12.63913095934633    1.61650358934462   -0.10763376005723
C        11.99080970641870    0.52240616379502    1.62202965133520
H        12.96808951783259    0.10360278538919    1.79751545962658
C        10.91601006089125    0.23197829748805    2.46216063210458
C         9.69839309445085    0.81314662210432    2.13462506737767
H         8.82842161654579    0.61214284107953    2.73252569845514
C         9.59381814898015    1.68334335539647    1.05212088531945
C         8.33291970693372    2.36593205744208    0.69533225332252
C         7.19447113207024    2.30898286063760    1.48924713010862
H         7.21604240941547    1.75934269082160    2.41466744114197
C         6.04171060246317    3.00520046074291    1.13171674163424
C         6.08756407174108    3.70741616265274   -0.06627360573054
H         5.24481341451428    4.27183411824113   -0.42511071809840
C         7.25890178969500    3.72186104943992   -0.80553804845792
H         7.31407488544018    4.28911312077063   -1.72577727694573
C        11.10884138375148   -0.66096401592295    3.67141467701527
C        11.60568072302395   -2.03628042669740    3.20410201475217
H        12.55558649953693   -1.96112834506300    2.68237536190815
H        10.88126154279007   -2.49356723761233    2.53313667349150
H        11.74041967393714   -2.69030722310931    4.06214248652181
C        12.15381635955969   -0.00664919338582    4.58678666973935
H        11.82459355728341    0.98691996993421    4.88244403150901
H        13.11598331195793    0.08582994114428    4.09089027811245
H        12.28842911127952   -0.60716674719107    5.48324151140399
C         9.81847995202452   -0.85344984476347    4.47154798343315
H         9.05050550738131   -1.33691612726103    3.87121843652043
H         9.44396829110703    0.09822108789515    4.84126399028248
H        10.01925380752228   -1.48946730486027    5.33061053904011
C         4.83436234045207    2.98522132325792    2.04724783039371
C         4.37472168984445    1.53327207440438    2.24445516181573
H         3.49452897165868    1.50955644492550    2.88241613370952
H         5.14627377571615    0.92795675423760    2.71253608588413
H         4.11812247339081    1.08287334498033    1.28738733487064
C         5.24113259144483    3.59853307284365    3.39450486945711
H         4.38301799707337    3.62991177935126    4.06184674024358
H         5.60565237873822    4.61291718328437    3.25133567776156
H         6.02645543227395    3.02290869005502    3.87678618840441
C         3.66449990429036    3.79237534120802    1.48026889053092
H         3.33277062852825    3.38855832913954    0.52601382427813
H         3.93895705137621    4.83647080375687    1.35359684795215
H         2.82684592109113    3.74828977822278    2.17270155304991
C         9.12210234156243    4.95783065210633    3.37106444625695

