95
CSD_code = ICUZAJ | q = 0 | S = 0 | Stoichiometry = C38H53N2NiP | MND = 6
Ni        2.77448691399214    0.71656519087435    3.84338229615538
P         4.74037888060402    0.15934602579086    4.60844063607456
N         0.68809092165602   -1.91926782088838    3.56357639375765
N         2.45925961252970   -0.73731740796805    2.53755005874554
H         3.17048057299561   -0.93075555837572    1.83577642296948
C         2.41637386390861    2.46791748017837    4.79233020950849
H         2.16824535412940    2.08134190907862    5.77911361416752
H         3.00574982173661    3.37909453631550    4.83011734881108
C         1.50081591480562    2.32575579082768    3.73712830205621
C         0.77919750989074    1.10383163625930    3.62972674310921
C         0.61028049044251    0.21619619544819    4.75649727522472
H         0.50009184421895    0.66338366965611    5.73869924769062
C         0.47213967153915   -1.15839820556519    4.64937272059620
C         1.56245287619630   -1.70872681085027    2.60246868856729
C         1.41740686578371    3.36322741294568    2.64990679568084
H         0.41631417455527    3.79757275438216    2.64287694285991
H         1.60157726127360    2.94082486796483    1.66336090746393
H         2.13672537033845    4.16098754200071    2.82461029043763
C        -0.08756206005125    0.88022159774695    2.41623961714467
H         0.48468418152834    0.90405034157461    1.48978879633149
H        -0.83429957975698    1.67576887883977    2.37241736068620
H        -0.60174136534842   -0.07465893135299    2.47897331783244
C         0.04808079388513   -1.93784809407451    5.83214501240309
C         1.55449063355555   -2.75881929747156    1.54901498945210
C        -0.75680157220817   -1.39239561799897    6.83038383038304
H        -1.11183961106885   -0.37564991921514    6.74414892733272
C        -1.13231449588712   -2.14883576555697    7.92534843307575
H        -1.75737333878988   -1.71013964403778    8.69048975037562
C        -0.71982258775069   -3.46558978943189    8.04168655296577
H        -1.01509495512252   -4.05325809798662    8.89879004548367
C         0.06503430415695   -4.02545784774195    7.04704210595956
H         0.38316656640416   -5.05545836258647    7.12690988911856
C         0.44342565811833   -3.26969965179255    5.95499852854863
H         1.05736298861544   -3.69765319477791    5.17721808072176
C         1.01014004549666   -4.01105207936802    1.82338306158365
H         0.59390311229630   -4.18312572054973    2.80336232021496
C         0.99575371898381   -5.00065984530029    0.85999368829471
H         0.57381299009802   -5.96907746475712    1.08825466020801
C         1.52153496025473   -4.75534269994068   -0.39850586719213
H         1.51312244957513   -5.52913949175088   -1.15254773432171
C         2.04854879099529   -3.50881220080030   -0.68891516422154
H         2.44502280120883   -3.30539884832139   -1.67385976409469
C         2.06461639804976   -2.51730056512362    0.27550198345230
H         2.45637613405524   -1.54226482462346    0.01756231669354
C         5.84670965657187    1.59510171803231    5.06185635977205
H         5.27890102464971    2.07267840101984    5.87310911313181
C         5.91734869379641    2.61248931788118    3.92260984874010
H         6.56178622998530    2.24212880372423    3.12514359929813
H         4.91913762665444    2.76264630137714    3.49977988068026
C         6.49308842978842    3.92567937418454    4.44395847662476
H         6.54546042161967    4.65974400662955    3.63687628359088
H         5.84172980554139    4.33014447242446    5.22255112364710
C         7.88748065471218    3.68995154519781    5.02033366598299
H         8.55601694089358    3.36345117509750    4.21990845213487
H         8.28633822076556    4.62185000753368    5.42644553658015
C         7.85219414438653    2.62308249293568    6.11223402037912
H         7.24987933812337    2.98166121838469    6.95048489464941
H         8.86340833706691    2.44128563141018    6.48319061004756
C         7.25436268750574    1.32011087183743    5.57937198020120
H         7.24329074046675    0.57081817412674    6.37231946163857
H         7.88528206948386    0.95237877679494    4.76949719738101
C         4.68405063240010   -0.83336981530781    6.18603186215124
H         5.70426434842952   -1.04749820940598    6.52415126844402
C         3.94700582320450   -0.03924371451947    7.26402837128904
H         4.46792059248280    0.89660869542718    7.47633348092850
H         2.94835744293795    0.19594923180797    6.88563944294496
C         3.81348210002409   -0.84526667807879    8.55198083830201
H         4.80829194841579   -1.07566887846780    8.94297546177516
H         3.28858308769523   -0.25215532822603    9.30406561749144
C         3.05637693408405   -2.14040265867741    8.28604893871094
H         2.04620141586713   -1.90856278726159    7.94423956301509
H         2.97363175507030   -2.72453968128900    9.20488914359181
C         3.77582111063263   -2.95068719983715    7.21510689651435
H         3.21472862204739   -3.86219555471635    7.00331607417213
H         4.76405639955076   -3.24147760807763    7.58321567694853
C         3.93377351148091   -2.14126441585326    5.93093647398604
H         4.45964995011621   -2.74970560294837    5.19373548863429
H         2.94833412668751   -1.89743219208619    5.52357963559839
C         5.65481262448410   -0.99151212158147    3.45393709080481
H         4.89002504562919   -1.75932564200162    3.26748848739480
C         6.91454516858725   -1.71042628024707    3.93140970757794
H         7.74153015080283   -1.00783693641910    4.03209554824747
H         6.75603184085824   -2.18632633673243    4.89941438694201
C         7.29308567869726   -2.77612156789833    2.90080840496044
H         8.19623818426210   -3.29778473614179    3.22548824037905
H         6.48912922445259   -3.51289197308322    2.83166644743662
C         7.52456743707556   -2.15261976770767    1.52643111307256
H         7.75980448888222   -2.93425445914924    0.80132945676460
H         8.38188193431765   -1.47661863832884    1.57669392086880
C         6.29463013457910   -1.37101848883641    1.07061768982109
H         6.49236822292293   -0.89699017883754    0.10660231862062
H         5.45525617839504   -2.05878004608290    0.94016892103376
C         5.94122486647844   -0.31445078768810    2.11368907425190
H         5.07305381097240    0.27441307524487    1.80067179904372
H         6.78787530357654    0.36637292274422    2.21638302149516

