84
CSD_code = IDABIA | q = 0 | S = 0 | Stoichiometry = C38H27AgF15O2P | MND = 2
Ag       13.66854211537756    8.08747321862546    4.00404116813968
P        11.33947643156688    8.86634078341593    4.35869399241385
O        15.75233018113520    8.92945060191860    3.24864029858589
O        15.61470534418753    8.06443226896451    5.28121668776564
C         9.94705336547421    7.70164492171262    4.24345986602735
C         9.82898641388337    6.70607572129342    5.21137824928271
H        10.52369234886456    6.67653197880397    6.04015792062672
C         8.82913461225634    5.75303517365495    5.10691305829138
C         7.94781767919677    5.75768769970116    4.03293333761845
H         7.17457922206385    5.00920561015799    3.95061012935417
C         8.08821538557323    6.74128652382722    3.06278679789275
C         9.07668047077759    7.70922380847757    3.15974304190028
H         9.17593621834030    8.46516355277980    2.39431484789723
C         8.74819026775497    4.66317981328351    6.14576975282650
C        11.05201931722990    9.60231899665981    6.01203164646980
C        12.12524348373184   10.31073321255708    6.54775963599527
H        13.05971355933230   10.36313924882952    5.99689065148378
C        12.00000350308604   10.93869553568766    7.77556580368609
C        10.81722920102820   10.85561267777307    8.50069941909444
H        10.72598171503442   11.33954257090305    9.46130040110040
C         9.75901273596400   10.13708377499185    7.96609663285797
C         9.86347201079556    9.51832662510754    6.72776787924701
H         9.01775450499751    8.97100875125334    6.33621152465597
C         8.44370878240355   10.06024105329170    8.69920960843825
C        10.79307015569102   10.22558932552418    3.27952618861510
C         9.78400285416198   11.08954995042915    3.70589846314548
H         9.30109614693875   10.92529476614718    4.65843963601866
C         9.39495902471776   12.15760603906692    2.92302710672745
H         8.60817233002272   12.81401839239624    3.26087292827275
C        10.02688521524770   12.38534693816407    1.70890405338719
H         9.73319703039697   13.22434384486743    1.09688175917873
C        11.02953974271201   11.54016409121865    1.27986036867184
H        11.50447679008311   11.71714226456002    0.32756824005957
C        11.42328223181719   10.43831755884569    2.04238032177751
C        12.45465744630483    9.53563748292557    1.52052333935922
C        12.37542590061732    8.22504388430346    1.67944830346386
C        12.27854681532857    6.93224901810069    1.49911288841019
C        11.68761188022041    6.32749852990956    0.22862745558248
C        12.90070568326547    6.02821889933663    2.50866972660280
C        12.15464539570774    5.22362498642023    3.36750184758709
H        11.07701700566389    5.22687873033208    3.30777105337525
C        12.78739949651598    4.40524401290413    4.29030554007722
H        12.19272459827818    3.78451208834477    4.94377758756888
C        14.17010821495374    4.37431238594720    4.36690140376090
H        14.65745576625774    3.73251220190683    5.08434957420822
C        14.92813589240044    5.15719928044387    3.50953902828854
H        16.00663920621695    5.11284541074183    3.54320288617392
C        14.30257944694512    5.98562648372786    2.58600641046424
H        14.89378513180363    6.53625120739787    1.86208972758449
C         7.12400775066104    6.76156276597184    1.90345806841135
C        13.15724232457637   11.70705452390809    8.36654370320633
C        16.23121639324506    8.52410632577177    4.31348977021920
C        17.78277823179317    8.54197500817084    4.42836903276404
C        13.61380755720234   10.14902074178205    0.77317133988124
H        13.82645439328402   11.14333731175670    1.15620717729372
H        13.38464875978173   10.22218148999839   -0.29039744026080
H        14.50347642354883    9.53731182589410    0.89475274318875
C        12.85694571064553    5.72608933067073   -0.56179631109116
H        12.49261773273837    5.29638383446848   -1.49184771354102
H        13.34697412569297    4.94224950243134    0.01114831852729
H        13.59022888493410    6.49299642225779   -0.80003893709562
C        11.00359231235967    7.40678714043120   -0.61089415963557
H        10.59731406917022    6.96543924433007   -1.51742159379460
H        11.71120095529720    8.18093549267634   -0.89364148917489
H        10.18656946545457    7.86802159931756   -0.06119104108509
C        10.67815447135009    5.22551214291514    0.55471889072874
H        10.24871573386300    4.84354431037647   -0.36842997738329
H         9.86733133680404    5.61193109289484    1.16858819011653
H        11.15273363998714    4.39785425810991    1.07481170823502
F         9.04961210669625    5.10895974757084    7.37078951085118
F         7.54060945402680    4.09842579580805    6.21442354568630
F         9.62163836092501    3.67411816338323    5.87640668865852
F         7.85465806107410    8.86466856070707    8.55297329523603
F         8.55852625427614   10.28739065645917   10.00795924209550
F         7.57002349100581   10.96810039792454    8.22257436567843
F        14.06458343770035   12.05609888720278    7.45185226129394
F        13.79478905867982   10.99707641734829    9.30769986817844
F        12.74692193158270   12.84017576526312    8.95860572022093
F         5.94314147605736    7.29669197382256    2.25080702247608
F         6.86699137523205    5.53295002581315    1.43722862275918
F         7.58005252496576    7.48067783422790    0.86939200538774
F        18.35282024743350    9.46464297791475    3.64347382532319
F        18.28433232389865    7.34921962095425    4.04557210431675
F        18.21639135182399    8.76144691377576    5.67286345247505

