136
CSD_code = IDADUO | q = 0 | S = 0 | Stoichiometry = C47H79BFeN3P3Si2 | MND = 4
Fe        2.24268872981549    9.17172687895016    4.19423960740690
P         2.78919634410568    7.06479933871518    4.60558649060525
P         1.19930759151935    9.40330947631698    2.24939340537839
P        -0.69846511473132    4.88774244598691    6.31499575802012
Si        0.63648109322919   11.11298627798908    7.67013631080667
Si        3.26936423685019   12.11924532377991    6.65701366992438
N         4.81215516736962   10.31682771152879    3.21622720480818
C        -1.10332014556575    7.48784440294913    5.29516804387319
C         3.80960453353429    9.77042123904665    3.54231436940882
N         1.90452452563702   11.00990367418304    6.43359635002534
C        -1.03613606223197    7.82719432183578    2.72644997965715
C         4.56898932608424    6.52042431845250    4.30036418519771
H         4.68743694359297    5.47617144506504    4.60285744604652
N         1.86648771152924   10.12872086261316    5.46023886820622
C         0.49785858520333    5.86867118342495    3.61345977218215
C        -2.34508991007090    7.39494817165646    2.49010227345173
H        -2.80333872615081    6.70182376360298    3.18392734287542
C        -1.45879703442222    6.57113389281079    6.30619167858940
C        -0.48999542138131    8.77331955609491    1.85560876862277
C         2.45282604157544    4.45474142518272    3.45320818756644
H         3.49545006617364    4.25767562874456    3.64495029621621
C         0.86739017011644   11.22573597946968    1.88791790290409
H         0.39779624616132   11.32852814087916    0.90503223921011
C         2.53515144749069    6.51418118576065    6.39992094388327
H         1.43519716821243    6.47878862332085    6.45785933904277
C         4.88035633266108    6.64920038918089    2.81299976954317
H         4.68478755725379    7.66981408518056    2.48958527037913
H         4.26074539012402    5.98044279555225    2.21939261348954
H         5.92620960742658    6.40897449390356    2.61760439502228
C         0.39683947083929    3.70951451437858    2.49359418655270
H        -0.17346601426174    2.97819772805394    1.93836160294165
C         5.90363930845525   10.33015823889117    1.06511775162374
H         5.79043868346911    9.25284763364068    0.96203737184765
H         6.81023248813272   10.63652042494120    0.54886258683634
H         5.05237124421275   10.81491320435617    0.59213092629140
C         3.02007378099377    7.54779573274175    7.41025723318956
H         2.51913903579397    7.40348428892287    8.36677089750411
H         2.80303673065083    8.55189234216560    7.04961061756370
H         4.09037737118703    7.46795892661989    7.58177996920603
C        -0.19891272061063    4.88622308950859    2.90404068304605
H        -1.23404816397541    5.05689266121137    2.64694664814491
B        -0.31856514235698    7.16696989888343    3.96974597888726
C         1.86585401479365    5.65354078301977    3.84833425900364
C        -1.69148501986558    8.76120065929424    5.35500874444085
H        -1.40743212386971    9.48555648446282    4.60489000805328
C        -3.07714565716638    7.83968029539605    1.40778554223849
H        -4.08465829589148    7.48197555107412    1.24820012694381
C         1.78683599175619    9.47641561688517   -0.66511811389265
H         2.51763647447076    9.13028420145580   -1.39712293445347
H         1.82722081844134   10.56253539401639   -0.64552468004952
H         0.80547774412177    9.16143906292420   -1.00941184154194
C         3.41242301118670   13.37112799949109    5.23203793420648
H         3.84697355750072   12.90448408547563    4.35627326177354
H         4.05016757518164   14.20282217766109    5.51560496809451
H         2.44500865721726   13.77453562682633    4.94815193930074
C         5.98807951672585   10.72153376406433    2.54680718426951
C         1.72752645629452    3.48223796778980    2.78943818128433
H         2.20849191487822    2.56242604069219    2.48755446673496
C         0.12304996965033    9.39374482305510    8.28186238265946
H         0.14389383360560    8.67838988581558    7.46659805989303
H        -0.88524114118038    9.41205326511223    8.68086496390600
H         0.78456181947989    9.03341053732839    9.06348371646686
C         3.06760650614071    5.12415349189352    6.73135311372351
H         4.15453240530507    5.09339162726083    6.70455576377156
H         2.67039046128640    4.38174394040039    6.04284480190095
H         2.76058430694859    4.84586907318051    7.73917745237838
C        -1.24024400718064    9.23249126218038    0.77371061729661
H        -0.84179506538259    9.97619263427618    0.10213122632646
C        -2.39024872876331    6.94110536556375    7.27531676378009
H        -2.67576230969322    6.24499251675529    8.04877721219927
C        -2.61423739538101    9.11577180344628    6.31438404139571
H        -3.06127121395927   10.09921076747744    6.30942181608969
C         2.11864926136601    8.85538871198529    0.68805624180410
H         3.16332062165067    9.09386937478176    0.93107044887640
C         5.53825889988310    7.36585775312239    5.11914738296687
H         6.55619493460125    7.23981850796997    4.74950411261270
H         5.53094579867183    7.07639900597044    6.16604988382000
H         5.26528341912750    8.41633402118946    5.04635907792604
C         6.12132326375846   12.24416458261133    2.68039374918058
H         5.25789926864047   12.73998329980343    2.24162746139584
H         7.01710135493719   12.58533785685308    2.16741497372235
H         6.18965480880890   12.52495339227256    3.72919741359738
C        -2.98157294012740    8.18897328787757    7.27582777953036
H        -3.72111464094163    8.43629069236969    8.02513911386960
C         1.98080455674284    7.33765894762692    0.60767662119666
H         0.97192187095565    7.06069400740184    0.30456367600606
H         2.17194574756714    6.89331327134151    1.58417648992978
H         2.68416450036417    6.92025430931063   -0.11194003556793
C        -0.09350358654923    5.42393942051836    9.01026340468969
H        -0.22473416614521    5.17856255537186   10.06461120835544
H        -0.44543838342989    6.44015661174456    8.84826322779210
H         0.96934509181012    5.39347310699553    8.78612841455467
C        -2.51691787233777    8.76054534102161    0.53909108699730
H        -3.08011341988467    9.12398602202759   -0.30915388085707
C        -0.80413637518467   12.15526579526483    6.98420594161390
H        -0.49029605646020   13.17794802242179    6.79305675055977
H        -1.62927486502292   12.18807519269247    7.68885718307806
H        -1.17873065423426   11.74642357963757    6.05126011875365
C         7.19378782218848   10.03533269963252    3.20049382620441
H         7.22891349345000   10.26435052184035    4.26328188865413
H         8.11385913104898   10.38170483110441    2.73626239503277
H         7.12362862551489    8.95749196874891    3.07993178809210
C         4.86513385504206   11.10720831241298    6.86475961556254
H         4.86526540411231   10.53158307136810    7.78567714990782
H         5.74508232144170   11.74276057599229    6.86580653697284
H         4.95203777543879   10.40808367895987    6.03803683211910
C         1.65756974892650   12.06877941523828    8.96539600056770
H         1.03063736888500   12.64351718594193    9.64604385831999
H         2.21565263181822   11.36284200637408    9.58178897594340
C        -1.70908808251144    2.57022131339107    5.08248148329214
H        -1.66234963585966    1.88917298441264    5.92875967869649
H        -0.72609980145086    2.61149520804352    4.61783579446677
H        -2.41523185196587    2.15888214389865    4.36164265478022
C        -2.15136013576186    3.96504116486387    5.51895855439000
H        -2.32230503484283    4.56009140127855    4.61226191804040
C        -0.08861362801862   11.74477465353455    2.95592517522245
H         0.33668515619004   11.55219955599378    3.94253334588679
H        -1.05525164660513   11.24640026697414    2.88583363461094
H        -0.24687120439225   12.81760551228652    2.84635184004727
C         2.64401049897610   12.98229328594541    8.23616643036163
H         3.46329146057755   13.27088674883817    8.89343912963781
H         2.13697513092419   13.90640266998269    7.95773769590546
C        -3.46229449525346    3.89949718314609    6.29229139168198
H        -4.22521497617179    3.44020657811340    5.66359993531631
H        -3.80955715891893    4.89258448503006    6.56852055745199
H        -3.36454206131021    3.29176923750047    7.18969883133607
C        -0.24073126069565    3.02824299176077    8.33393283484056
H         0.76390385637787    2.99031441478757    7.91633057274507
H        -0.83991538332441    2.26386658158241    7.84629944458685
H        -0.18202908837751    2.78524688439148    9.39499323251148
C        -0.84500079487552    4.41760622086388    8.14195891288044
H        -1.89352580166925    4.38695808821724    8.45334090570853
C         2.16066405616204   12.02441269366656    1.90977751777372
H         1.96096033868446   13.08486656712314    1.75198216883415
H         2.84778086893096   11.68387932029536    1.13758322614553
H         2.63754950843551   11.89407848550523    2.87894650488776

