110
CSD_code = IDADEY | q = -1 | S = 0 | Stoichiometry = C39H63BFeN2P3Si(1-) | MND = 6
Fe        4.17584805392401   10.73068380569396    6.05773689521979
P         3.11253970401485   10.57985336901214    7.94886931297040
P         8.71799943058306   10.44365232601057    6.05122020792516
P         5.10617357581050    8.83408428203855    5.45252275818440
Si        1.29832884108928   12.14570545445483    3.11882963441166
N         3.29081124531729   11.23106980742230    4.81799185273137
C         6.22107141244011   11.54941267644289    6.66972057168936
C         2.49303065154675    9.00272714427355    8.80917845850373
H         1.96723534767313    8.45107596206617    8.01681978655908
C         6.62641561138226    9.07279339260247    7.73178679799116
C         6.32622468778968    8.19138528584780    6.66673190703948
C         6.19823801482809    8.93785612671049    3.91325813552938
H         6.87104800662202    9.75776448933597    4.19691418389620
C         5.77358092417175   12.10386673984514   11.36708095202317
H         6.44683449932993   12.42126518626598   12.15454183192080
C         4.06030255091876   11.27720044411144    9.36111015692018
C         3.70483968877137    8.18846535320460    9.24944800242714
H         4.19908692079553    8.67280327003481   10.08996257489894
H         4.42572026129496    8.10908438292841    8.43959555033972
H         3.40887105605177    7.18401307205748    9.55645289973952
C         5.44464685006113   11.08884343513790    9.18827027541960
N         2.74822108871430   11.61602300328035    3.79989090296092
C         7.30111710592506   11.57650440721268    5.72387833718915
C         6.27695965547563   11.51041141670376   10.22183162768003
H         7.34954000800530   11.39394965262415   10.13081941467171
C         7.43705158383175    8.56637713725305    8.75309137830869
H         7.64782471632976    9.18915043421291    9.61135342308768
C        -0.05168518909375   10.78404383795109    3.02723997529966
H         0.36067450716746    9.86606844467012    2.61874826851095
H        -0.88276260841332   11.08250370666035    2.39369582925218
H        -0.45116172544487   10.54948123376647    4.00946535692835
C         4.41242591716832   12.31758324677244   11.49818428727327
H         4.01854379485964   12.80209634875962   12.38348743843444
C         1.83008561885716   13.01662576934922    7.58891141976078
H         2.31473780367530   13.00487054346718    6.61180344398390
H         2.50050515472722   13.49038266586094    8.30504852681258
H         0.91952537337460   13.61406485185466    7.52289566305285
C         5.38754716369595    9.40749497424889    2.70960087640767
H         6.05265787285367    9.76892920395759    1.92394690717275
H         4.72629115501937   10.22110274093236    3.00045220113749
H         4.79256536273360    8.59468416541169    2.29537869318649
C         3.55546126831239   11.90734959508763   10.49070250062394
H         2.49463808593967   12.09244678388772   10.59633219710638
C         9.28523356749572   11.36820452246126    7.60094141574728
H         8.34464452392998   11.40810652048435    8.16350550880807
C         6.87078597064078    6.91583102989050    6.62060885996991
H         6.63220191970139    6.24952931054556    5.80316653745429
C         1.51343711554778   11.58672351751772    8.00454616646368
H         1.07522338393957   11.59126217876488    9.00800097247048
C        10.01608679394457   10.96937664924300    4.76938440079995
H        10.04549801465517   12.05930458111020    4.66700180976026
C         7.96407274370732    7.29012161674057    8.71341384228531
H         8.58680210728981    6.93411266377256    9.52591119331552
C         5.33525481376465   13.55435246823360    5.52025495473136
H         4.62006213442892   14.36763092681761    5.49059789915414
C         0.54189497418529   10.96111745383151    7.01175755618037
H        -0.34344547963513   11.58516296125148    6.88179713058548
H         0.21892282561796    9.97303865039531    7.33568483800317
H         1.04449859079444   10.86229793354649    6.04917314068255
C         5.27728857810883   12.63011836179294    6.57095926736604
H         4.72520876366533   12.92348918486155    7.46024687854939
B         5.96801826734075   10.50924422002971    7.79628281912847
C         9.66127495122390   10.33056723270326    3.42752874447056
H        10.38096599902104   10.62538265619951    2.66101102140110
H         8.66815531693441   10.61719243462679    3.09238819005061
H         9.68527626963253    9.24649613523213    3.52164553868220
C        11.39713126837768   10.46825468060546    5.18632894890256
H        11.34051345635205    9.42773967247335    5.50368914499055
H        11.80964739035026   11.05567378795339    6.00181384678020
H        12.09086216466454   10.53201334333926    4.34576488665002
C         7.06418820700922    7.73712216270218    3.54588998613339
H         6.47015212675394    6.84126328453227    3.37041032355080
H         7.79118590173303    7.53446470124827    4.32764474182385
H         7.60662142609644    7.95698228750401    2.62512771237467
C         7.69601793252305    6.46148358577571    7.63673144918097
H         8.10521241897197    5.45951153856626    7.59938151980607
C         1.54647147378239    9.17184444182318    9.99434286522175
H         1.35339060101879    8.19493012214433   10.44184762733637
H         0.58896822435103    9.59576961851197    9.70157764757962
H         1.99867890134647    9.80357186329917   10.75568291148145
C         1.74611325965201   12.63443738425907    1.32923400454834
H         2.48263728967032   13.43101090442067    1.30986872005612
H         0.86994044276243   12.98092353768157    0.78861275708548
H         2.16054393526758   11.79392344196920    0.78192471482339
C         0.50079625635510   13.67292038666060    3.96199642677949
H         0.07031072561170   13.41439658508275    4.92446257590429
H        -0.28567654046916   14.11023086224250    3.35211548153835
H         1.24729924715714   14.44218935866144    4.13738679307176
C         7.30608561668786   12.48548612771844    4.68841885177036
H         8.10898327510623   12.50473049202832    3.96616114000207
C         6.30244580199619   13.45003220325859    4.55334956200507
H         6.33723203577774   14.14250866678610    3.72240494400037
C        10.28046055240749   10.56085078692804    8.42926575507650
H        11.28100915226565   10.58588610816849    8.00429231779864
H         9.95716454111387    9.52337536257460    8.48598412403186
H        10.33913457779957   10.96095813289289    9.44280820421502
C         4.02628495153325    7.34227235535441    5.00019662597885
H         4.53922294302423    6.75118001133832    4.23173846763529
C         9.75205690596082   12.80183571997672    7.37783687937368
H         9.84118541258814   13.31516326235520    8.33636814293784
H         9.02965732974915   13.34277059743416    6.76905536808631
H        10.72301602404257   12.83974028714992    6.88690601243075
C         2.73525189672357    7.91909929576946    4.42358858344064
H         2.02873365776402    7.12594052491348    4.17379338383620
H         2.92347604407307    8.51377788386936    3.53454996305115
H         2.28181966117225    8.58225433205515    5.16273957938565
C         3.67388409390389    6.43212497097205    6.17160394094801
H         3.05250266283660    6.97036612878760    6.88021513665117
H         4.55649780472657    6.07444785535557    6.69507194432947
H         3.11151575545628    5.56732796354210    5.81350588627514

