81
CSD_code = IDAFEA | q = 0 | S = 0 | Stoichiometry = C32H44ClMoN3 | MND = 4
Mo       12.50276584565398    5.25964848993900   12.10832700982706
Cl       11.34102773427294    3.35957003960108   12.30800099125504
N        11.84045939055019    6.31158548907685   10.88164952025793
C        11.24368383878837    7.23242412139573   10.11771374056188
C         9.87391511244309    7.53311183451432   10.29252229243025
C         9.26618262480244    8.47038422624309    9.47782604164144
H         8.21544224848660    8.68478315670032    9.61536694857839
C         9.98560556047508    9.12343608908031    8.48899391398179
H         9.49982461398182    9.85352937232012    7.85884038467479
C        11.32922690034443    8.83647006141470    8.31050093340603
H        11.89683832145144    9.34926339663728    7.54608519660270
C        11.96717161279836    7.90342246270362    9.10879637765392
C         9.15618066633938    6.81580089165607   11.37015319905081
C         8.84437511025764    7.47328493168077   12.56092466337751
C         8.21305772398680    6.77200064578767   13.57908793102574
H         7.96204584341080    7.28694297708432   14.49716322699925
C         7.90407928762841    5.42690699168752   13.44694880808625
C         8.21205606804851    4.78912134878904   12.25276657939495
H         7.96331324519412    3.74306096963666   12.13323637730455
C         8.82834069057928    5.46477108201737   11.21054098053295
C         9.18053633037474    8.92550940953194   12.73713201823279
H         9.16280154769213    9.20046727553058   13.78940280125348
H         8.45748569530001    9.54831890669522   12.21018850728833
H        10.16499223730979    9.14154517043317   12.32511615510777
C         7.24116438128561    4.66920850396779   14.55818700041010
H         7.75929460775277    3.72872224615829   14.73755258857284
H         6.20903194395772    4.43679235861098   14.29493042964403
H         7.23884580865077    5.24881700399694   15.47805028441328
C         9.11086609393627    4.76406015214135    9.91207277607082
H         8.57581999931044    3.81817338535080    9.86180818780722
H        10.18163852848044    4.55930527848575    9.81478490600561
H         8.81497517694602    5.38769080982256    9.06919319296025
C        13.78171520522642    6.74694703128916    7.85574073402995
C        13.39694346537107    7.55972068423324    8.92539022038202
C        15.12024944194351    6.42233663296204    7.69368659644230
H        15.41566700212452    5.78976522088731    6.86750768830345
C        16.09018741446145    6.89642261213057    8.56628919211216
C        15.69033390859671    7.69186945383575    9.63005149831508
H        16.43477417955208    8.07362322245492   10.31609711831456
C        14.35629278008613    8.01837163587262    9.83113256484224
C        13.95056486099776    8.83332770956163   11.02203715650753
H        13.19399425548163    9.56718815401551   10.75092534024411
H        14.80812125447991    9.34540856984918   11.45269370706021
H        13.51943430135663    8.16052854437211   11.77802129763936
C        12.75126918571124    6.21581052988736    6.90376036556408
H        11.91345452660888    5.78841002813353    7.45266333089084
H        13.17898801637001    5.45332922923314    6.25675477509133
H        12.35889839176465    7.01744887793321    6.27924602469846
C        17.53866488809070    6.56949565023153    8.34992555151362
H        18.09376421792187    6.60908023605987    9.28505359019617
H        17.98404261545250    7.29212437620831    7.66526751957634
H        17.65434678447815    5.58060482257084    7.91016781762283
N        14.20653696863104    4.85219957559040   11.34272226115051
H        14.46207456938028    5.16725754098668   10.40590467541388
C        15.38599319891188    4.34466565927289   12.01640368216141
C        14.92425381876557    3.37477964628580   13.11140977892929
H        14.36980453713560    2.54529634754789   12.66419276803837
H        14.27425296363353    3.90201558552255   13.81458084493556
H        15.77666786677069    2.97013962598834   13.65306502673523
C        16.15270131687057    5.52180327867673   12.64084712743003
H        15.46229884602414    6.09971664188904   13.25660191710594
H        16.53940105586537    6.16845107138141   11.85648149106687
H        16.98115290592883    5.17004043664986   13.25081623708595
C        16.28656626531362    3.60810478682262   11.01529611938687
H        16.62298666639451    4.29065123911208   10.23693550577487
H        15.73735418412517    2.79225108981852   10.54772078406260
H        17.15910247621247    3.19728278775285   11.51740674292335
N        12.62883456297333    5.91061384731106   13.71732120435646
C        12.51668320356503    6.57131915714922   14.96083495560229
C        11.16274357210046    6.17891429988165   15.58216470942123
H        11.13200708786466    5.10223178986499   15.74358282223984
H        10.36298873483222    6.44582363924440   14.89303025852717
H        11.01233740460929    6.68564710880114   16.53259750186853
C        12.56125512923575    8.09590037495250   14.74929456544787
H        11.80019073355248    8.37538770571912   14.02344527714609
H        13.53627301311966    8.38795921123627   14.36336130102217
H        12.37953140652611    8.61895237095701   15.68501095468719
C        13.65213339653231    6.15336664923333   15.91558665299139
H        14.61823499346179    6.42153905239113   15.49329879344549
H        13.62796842085295    5.07742314226748   16.07604946098114
H        13.53831921422273    6.65272403723227   16.87466052628469

