121
CSD_code = IDAFAW | q = 0 | S = 0 | Stoichiometry = C42H70BFeN2P3Si2 | MND = 3
Fe       -0.01161403615232    1.11923495054573    8.52652136784372
P         1.11321276066586   -0.21938115329366   11.20730981449497
P         5.20107142512762   -1.25640755984170    7.17770903255340
P         1.80226631390687    2.27024553921995    7.86825476488754
Si       -2.73249755564453    2.34741790287267    8.71998222934417
Si       -2.78449446241575   -0.01715164573628    7.14932766798647
N         1.34325843073639    0.23933220452736    9.70867587223884
C         3.78659630605899    0.76575182076444    9.08227049864766
C         3.09598010270226   -1.54071304827345   10.19137048145060
C         3.41538394231598   -1.41930015230785    6.72039291160160
C         5.03795734653260    0.62134129023300    9.68216822166779
H         5.27876613394782   -0.31382383934304   10.16521562519798
C         4.32388428218214   -3.37417558635217   11.17752350812905
H         5.06624861591612   -4.15501332762790   11.08239604162175
C         2.40977632903547   -1.00416577829383    7.61547264184015
C         1.19932479763681    1.18332486612300   12.44536574299034
H         0.47673691022750    1.93209931398469   12.09758728567149
C         4.04520837630855   -2.55061890435310   10.10077853087005
H         4.57158247359718   -2.69310800338230    9.16773979179901
C         4.44865189879824    3.02918948229223    8.49778927843584
H         4.23867078759806    3.98149542502373    8.03291863770190
C         2.42406371832845   -1.42099327637159   11.41304523109657
B         2.67987809532283   -0.42025582037517    9.10578645797856
C         5.97300929762857    1.63841787710434    9.69696228473515
H         6.92784142004952    1.49304609999912   10.18340360894886
N        -1.74637977466371    1.09429802667548    8.00630987400280
C         5.60649511897009    0.25570162955790    6.10849998962407
H         4.89622897491006    0.99002555730109    6.50827706781812
C         3.49335892168952    2.01157477677826    8.50711710681240
C         2.68710731990234   -2.23564458272652   12.50358445885286
H         2.14015903951120   -2.12257663708571   13.43016713646276
C         1.09192878309708   -1.12207065511969    7.17193057905768
H         0.28286472051225   -0.83425151930099    7.84537651976406
C         1.59279814552287    4.12573151362106    8.07540850428519
H         2.37932460164341    4.66994075223256    7.54487606792402
C         5.97108938272604   -2.70103284190955    6.22159090139676
H         5.83431146234468   -2.58595829040992    5.14200108325493
C         2.04542640809862    2.01656513025593    6.02044244650464
H         2.55318035136134    1.04587504173606    5.98165330023044
C         5.68616871535393    2.84524440361976    9.08187182134853
H         6.41730217190395    3.64159201530454    9.06444332143956
C        -0.46323870592508   -1.16506082736411   11.58515607925064
H        -0.45698527794532   -1.45180318343067   12.64196013360103
C         0.75310869870314   -1.63169318892368    5.93224208520304
H        -0.28351500734029   -1.71104396008735    5.63917361906531
C         7.01207920316196    0.76366768405645    6.42422752956757
H         7.76631752125339    0.20197673263666    5.87788932271791
H         7.21661223543096    0.67902966256088    7.48912739677630
H         7.10709772657786    1.81158657112065    6.14044334213565
C         3.06910406688616   -1.94599362578072    5.47739459893940
H         3.83440886972460   -2.29197959448263    4.79978002195210
C         1.67779493804342    4.44544438882004    9.56559273343408
H         1.47383783342222    5.50095245033725    9.74418002477825
H         2.66609326455723    4.21709928856997    9.95824519204200
H         0.94898560518608    3.85401075929560   10.11469506882445
C        -1.67554512008811   -0.30201830779013   11.27929773712672
H        -1.61048449659615    0.05544251388138   10.24771315661214
H        -1.72479483768006    0.55682152629673   11.94511902181380
H        -2.59570560571416   -0.87441681906639   11.39304006965773
C         5.40003684348564    0.16073703085644    4.60207482941904
H         5.61416004960615    1.12922918208679    4.14942658315924
H         4.37473665854485   -0.10591642512643    4.35835937270728
H         6.07266151130723   -0.56898755577572    4.15517935672940
C         0.23690089372067    4.53587870305314    7.51397172883966
H        -0.51806550056533    3.81154870053492    7.81397333582894
H         0.25803998937314    4.58417651481415    6.42864230050511
H        -0.05173001168726    5.51901769286927    7.88448023297544
C         5.33241605429248   -4.01193984495298    6.67577328139443
H         5.72064121040535   -4.84395210633588    6.08790007560017
H         4.24999108247981   -3.98879622660220    6.56776509650008
H         5.56665733357138   -4.20212070395983    7.72167232329826
C         3.65880965129642   -3.21244062763496   12.38459610553704
H         3.88625714217570   -3.85713945525284   13.22198804643880
C         2.91990469893484    3.04586773067571    5.31412743907843
H         3.10046576670133    2.72715786419180    4.28818499846350
H         3.88296859051822    3.14479870835427    5.80947959012923
H         2.43877564779922    4.02115953449355    5.28075377165756
C         1.75156877944411   -2.05448011358149    5.07588727535346
H         1.51077216218302   -2.46655085674403    4.10543719271885
C         7.46796314617761   -2.74194435962867    6.52108709310297
H         7.63752953435968   -2.74204963145736    7.59675562666172
H         7.98318466124439   -1.88496596830121    6.09693845760183
H         7.91240666197408   -3.64565725455047    6.10355895731929
C        -0.44459004916324   -2.41854728408015   10.72073839973576
H        -1.38425773034089   -2.96256244687232   10.80607492261041
H         0.36627416085573   -3.08195740257202   11.01533233606691
H        -0.29138677912808   -2.14047990826159    9.67913465671515
C         0.87261385051562    0.79195666521709   13.87987015715137
H         1.55123042958064    0.01657890568770   14.22742487541989
H        -0.14963540360813    0.43311836103903   13.97581224699251
H         0.98870089408627    1.65686817559082   14.53258107074531
C         2.60342150558647    1.76373043309676   12.32712280902049
H         2.69039413220889    2.69622714794907   12.88261232351909
H         2.83972920588405    1.95133974147300   11.28060454944205
H         3.33727001122465    1.05813535591460   12.71379377277901
C         0.68787870096572    1.85952188191451    5.33836639359535
H         0.23013575388387    2.82496326051656    5.13988805159726
H         0.01416561359854    1.28355156098064    5.97621142240751
H         0.79905849520962    1.33894919420979    4.38872084242613
C        -2.67483813413589    0.20184056521406    5.25829542938146
H        -2.82583344925256    1.23686840532364    4.96979697789736
H        -3.43888938436199   -0.39364625606490    4.76941709260879
H        -1.71363362311968   -0.11000927752869    4.86768618312985
C        -3.16696208819631    3.76031564797116    7.49684990453838
H        -2.94215985865975    4.74089139475955    7.90307714861143
H        -4.22705521594439    3.73927196650272    7.26579263421622
H        -2.62929562333177    3.65814256814276    6.55994552311950
C        -1.75416748997259    2.99258073248326   10.22143108554792
H        -2.26648700381933    2.79750430784812   11.15535728297545
H        -1.59184153341514    4.06087550438837   10.15684748886663
H        -0.78270182563699    2.49552981990561   10.25237079628706
C        -4.33868094952952    1.37065070430162    9.02741848899498
H        -4.23416983233090    0.69943301628112    9.87991728163728
H        -5.21279997477277    1.99243583718570    9.21945473241172
C        -4.51762184804714    0.54475736266443    7.75083543405186
H        -4.97170594166320    1.17476591804506    6.98553185510906
H        -5.20577858964580   -0.28439013648408    7.91615448773951
C        -2.54802627546837   -1.83990258245076    7.65841276898351
H        -1.53462469243217   -2.19166606693442    7.51289309298470
H        -3.19998310037480   -2.46884484008293    7.06016635987963
H        -2.80769787944127   -1.99635383359193    8.70005120781467

