70
CSD_code = IDAGOM | q = 0 | S = 0 | Stoichiometry = C33H33IP2Ru | MND = 8
I        25.61054937287728    2.17693749997359    3.57265772460424
Ru       24.99033613545055   -0.08020435294131    2.22046093279169
P        24.26627637790698   -1.12820634527923    4.08484296010225
P        26.89300459032167   -1.21652901527835    2.64672692469219
C        23.15408249749553   -0.34073721733939    5.29659524954560
C        23.26325083647966   -2.63795716481858    3.82634845371159
C        22.88634534011170   -0.93299653093483    6.52797274529372
H        23.37874074940014   -1.85518501016557    6.80379115807662
C        28.24126130080496   -2.45766116998511    0.48893775810529
H        28.97178599790214   -1.66366073724433    0.55758412739813
C        28.55142110957599   -0.45697649659779    2.71244086392871
C        25.70606644420495   -1.72128493642881    5.12296135902178
H        25.34945778715150   -2.51413088273493    5.79473498363088
C        29.66221582075400   -1.12894867348153    3.21694012891501
H        29.56396532628930   -2.13276526955317    3.60731493860540
C        26.23651490195027   -3.52335996600373    1.26912382306196
H        25.38872523656901   -3.54426197142217    1.94367378646253
C        21.58834718660826    1.41178212344397    5.80574835155932
H        21.08319679953778    2.32318654046081    5.52277660794189
C        28.71303034548864    0.80526301739017    2.15328219736623
H        27.85485173434160    1.31520729096204    1.73851544406143
C        21.34377874048477    0.83331003221090    7.03892809546165
H        20.64668962542403    1.29339536676488    7.72358034463408
C        26.35660879233591   -4.48211247650258    0.28257022118965
H        25.61554637178084   -5.26443053076908    0.19846908448576
C        21.98956544878319   -0.34070204849605    7.39589062893345
H        21.79018511442966   -0.79670666033319    8.35493997804605
C        28.35697359007802   -3.41831304750633   -0.50114275971560
H        29.18109611396993   -3.36988481806570   -1.19820450594793
C        27.42121318076457   -4.43325060478397   -0.60405814485639
H        27.51455063057782   -5.17996649810906   -1.37872942221338
C        29.95682443945610    1.40990591115547    2.13461404327578
H        30.06846432388583    2.39642850413649    1.71054780017814
C        30.90361898210573   -0.52200472042980    3.19632757931685
H        31.76163835815829   -1.04510180275166    3.59367738739287
C        22.48813845648825    0.82317131063447    4.93535362354368
H        22.68611836464546    1.27261662111900    3.97068681980255
C        21.58720134372694   -4.78711659947383    3.23888025070929
H        20.94170615142309   -5.62123179704914    3.00698146684765
C        31.05173584757139    0.74998248191152    2.66511087748349
H        32.02363110373344    1.22083837442322    2.65934093340050
C        22.89384893973013   -5.00908562239972    3.63616173613498
H        23.26930828545493   -6.01900804709952    3.72099155455802
C        21.10797565783106   -3.48960882892562    3.14994579206062
H        20.08443601273374   -3.30900454768045    2.85462782041531
C        23.72901515970409   -3.94378889643003    3.92832521601750
H        24.73966188841056   -4.14659288217826    4.25003459289267
C        21.93964739852612   -2.42726407117578    3.44226941433095
H        21.56282664788021   -1.41349944300628    3.39388290221718
C        27.18713636513989   -2.51245069574597    1.39399299748976
C        26.79977726955507   -2.25171496221733    4.19715840848696
H        26.61598529669659   -3.28411913495016    3.88699408688991
H        27.76152012008011   -2.21902538226468    4.71682680311851
C        24.91421911862350    0.99961017162002    0.22553073958209
C        26.27196019591227   -0.56476056676737    5.94357496945238
H        25.48639727701173   -0.00072306974994    6.44434255151695
H        26.81840383045235    0.11446500166928    5.28893602023299
H        26.96361464903715   -0.94023168856582    6.69688713355488
C        23.63334275451462    1.12098749037215    0.86521720040213
H        23.12866985109905    2.06018132004812    1.06086688537518
C        23.08319318072928   -0.16391263104690    1.01410635286033
H        22.07593572062249   -0.39117803401868    1.33685893008666
C        25.13212213958352   -0.37469188228871   -0.00380951546325
H        25.95497208141316   -0.79688389706143   -0.56834180261025
C        24.02798521082507   -1.10771550611815    0.51905470467897
H        23.83658919234398   -2.16001956255813    0.35499828304048
C        25.71987047279087    2.13738660808694   -0.32193732671268
H        25.22803470083420    2.53673090299900   -1.21210470079095
H        26.71895084209288    1.80462039077964   -0.60274190901935
H        25.80758886928696    2.94755973668957    0.40245533846265

