59
CSD_code = IDAHEB | q = 0 | S = 0 | Stoichiometry = C28H26AuO2PS | MND = 2
Au       -1.48782630721731    3.33305264950149    1.53463036621145
S        -3.24922951658136    2.52300608943385    0.23441238500531
P         0.29833110890284    4.06073772984726    2.76063029988136
O        -5.46235976531179    0.98798332714707   -3.13712330958181
O        -5.01221526884269    0.73826493685880   -0.97604280404420
H        -5.92753846473147    0.41880017992537   -0.96017804115438
C        -3.32142916763294    1.65715941161848   -2.36972746752433
C        -4.68859922638306    1.12137319343077   -2.21414110481187
C        -2.57564990113534    2.26995090885320   -1.34382284263492
C        -1.28971636713406    2.71772632725810   -1.66342010103107
H        -0.70722072351044    3.20680021853677   -0.88964901785103
C        -0.75359421403676    2.56670055250291   -2.92208711434650
H         0.24826054423138    2.92252144480798   -3.11939365100457
C        -1.49835962055842    1.97241529294521   -3.93165123017480
H        -1.08670008077273    1.85826384218345   -4.92268956085032
C        -2.77388461306010    1.53559449436624   -3.64640554581602
H        -3.38581265599866    1.07599662696339   -4.40840893429725
C         1.87912705952633    3.90122303236654    1.87391460491804
C         2.19601295307042    2.69404007672540    1.23486737878196
C         3.37169437489864    2.62474263566215    0.49846486212973
H         3.62200347396350    1.69898805708219    0.00061792836128
C         4.22142284821963    3.71123648306102    0.39189480823839
H         5.12835382927565    3.63100826573906   -0.18823939344743
C         3.90945941126954    4.89651647553313    1.03576601033127
H         4.57132746829807    5.74663299399962    0.96740241602015
C         2.74210765751792    4.99075226652170    1.76904719890299
H         2.49871068527516    5.91677649123263    2.27108111720301
C         1.31132373722617    1.49195552093906    1.33174635542825
H         0.81650348180940    1.44125888500965    2.30172086123727
H         1.88896711438535    0.58123659615081    1.18790571079116
H         0.54131124119180    1.52216764908256    0.55825836505570
C         0.25413721322321    5.80906971550333    3.26131014944222
C        -0.09165799235595    6.78934051636225    2.31987724918603
C        -0.17718135774687    8.10965458024106    2.74076468900566
H        -0.44252253771489    8.87219424127258    2.02272961767855
C         0.06956317703189    8.46408000556852    4.05543201033523
H        -0.00478269185335    9.49789203959858    4.35739811890935
C         0.41538087382442    7.49261501419542    4.97900110882590
H         0.61661902417895    7.76080691247872    6.00515506762759
C         0.50323458792313    6.17139575213781    4.58358809955843
H         0.77380052417259    5.41335497334104    5.30522299879306
C        -0.36074347553982    6.43834581887886    0.89195379251054
H        -0.33263880616398    7.32611526944784    0.26445185362810
H        -1.34987149771629    5.98397313747204    0.79437462492148
H         0.37458522167210    5.72430886218695    0.51920497505980
C         0.58024840706111    3.17474667615110    4.32282934659131
C        -0.49811381205177    2.96506015781068    5.19404769361961
C        -0.27756921988948    2.23669235218595    6.35513146953044
H        -1.10176711220432    2.06911524269816    7.03338863256005
C         0.97219945836250    1.72431888947742    6.65652138150950
H         1.11756341409527    1.16022726772407    7.56547314956749
C         2.03377856108099    1.93914699872007    5.79426018054472
H         3.01320663189019    1.54838535547617    6.02548507509197
C         1.83693982342007    2.65810482381404    4.63055719627203
H         2.66529253397958    2.82603432610380    3.95641384437165
C        -1.85644976899459    3.51029491051577    4.89149509357499
H        -1.79364384152910    4.53583409443614    4.52532431974895
H        -2.48526698046287    3.49426466689847    5.77850400255341
H        -2.34192145385087    2.90994474401645    4.11782370905183

