62
CSD_code = IDAJUU | q = 1 | S = 0 | Stoichiometry = C31H28AuNP(1+) | MND = 4
Au        7.42748625751929    1.81657289487341    5.38689379868525
P         8.03385826022878    1.00188210844193    3.21985216945048
N         8.20026487062916    0.16212928277195    6.45771741016811
C         6.89314615466797    2.37647119767257    7.25300775114244
C         7.34490223174794    1.47282296403864    8.23124354008280
C         7.04526809991593    1.71482014690767    9.57559345399497
H         7.38322577330775    1.03199904237297   10.33875599709473
C         6.30732492244620    2.81691341320140    9.94436825251701
H         6.08341797374090    2.98881786325603   10.98632125035765
C         5.83758805562373    3.70711999191329    8.98461946181691
C         6.14414941649922    3.46517375937032    7.64575514662142
H         5.76902227038740    4.16267974881172    6.91374772663096
C         5.03400776458825    4.89925446529552    9.38325135685015
H         4.24144553267323    4.61198836200643   10.07142528429303
H         4.59297979917450    5.38731894297312    8.51861355819039
H         5.67004302102506    5.61907898591229    9.89835966200076
C         8.07970779616438    0.30228982785530    7.79174055176983
C         8.63393598383598   -0.65886829458057    8.64328069890844
H         8.54920437107624   -0.54439861374004    9.71067730050057
C         9.29348045301429   -1.74858180383292    8.11549058248639
H         9.72497914189896   -2.49376723076023    8.76565433911383
C         9.39294005991559   -1.87542819113782    6.73384010803326
H         9.89326620552824   -2.71354075621919    6.27854218298961
C         8.83243758818785   -0.89084882386039    5.95046313083323
H         8.88421153832019   -0.94314818646737    4.87124552885594
C         6.74066434877447    3.56088946113599    4.62132872262360
H         7.10012161701723    4.41053216900725    5.18919016212809
H         5.65675619742700    3.57871529771005    4.61753320281070
H         7.07936912703645    3.68335696423350    3.59736883759787
C         7.17419661593399   -0.51425780364159    2.71925515693491
C         7.29531598281075   -0.98950968990793    1.41374274179632
H         7.90350429311430   -0.45110062188345    0.69906120447284
C         6.62429327707882   -2.13816305308307    1.03968983959337
H         6.71975511349571   -2.50957472660522    0.03077634041592
C         5.82510352917101   -2.80786725994265    1.95450146397078
H         5.30113044091825   -3.70266603466364    1.65623091285755
C         5.68748294547911   -2.32515613606583    3.24570758533659
H         5.05260408420544   -2.83828037396835    3.95189627471628
C         6.35873102010119   -1.17794543135617    3.63047440910078
H         6.24344902296887   -0.78703305790223    4.63432103136436
C         7.71539989295973    2.07609008423459    1.79335988876779
C         6.38033086638841    2.23569528225489    1.41836115824245
H         5.60693260215826    1.70806431602973    1.96247874000655
C         6.05809856281741    3.05924160302072    0.35824892660015
H         5.02658387594076    3.17898835405739    0.06454102884235
C         7.06047064320422    3.73262652964256   -0.32475635024499
H         6.80782941338715    4.37623971539040   -1.15302381626837
C         8.38410570685548    3.58282116869081    0.05466056499741
H         9.16230408527680    4.10841219830551   -0.47739075170764
C         8.71898634144096    2.75970302789051    1.11635421374936
H         9.75314493565375    2.64469190748831    1.40864726468195
C         9.81481754539596    0.66722197192642    3.13161959425363
C        10.64160501547349    1.65297166560992    3.67017977485543
H        10.19625429501512    2.54323403223900    4.10020653053296
C        12.01365959995032    1.49139867392023    3.64726743416068
H        12.65394516892720    2.25890286302552    4.05459888567374
C        12.56345370113350    0.34085372745299    3.10197864545416
H        13.63473237021083    0.21359452176244    3.08376944542776
C        11.74168734820785   -0.64750535817329    2.58476619040777
H        12.17258570980121   -1.54451812758633    2.16671006745158
C        10.36616214342183   -0.49256371294213    2.59852565543459
H         9.72843901869225   -1.26935524439091    2.19995877958776

