35
CSD_code = IDAJII | q = 0 | S = 0 | Stoichiometry = C15H16AuNO2 | MND = 4
Au       -1.14790360138089    8.80688785928457    3.49522411336791
O        -1.23533337914206    7.76359738836519    1.66901566267594
O        -3.30564384319519    8.15180673711026    2.26906857385845
N        -1.72810720124060    7.14230599973949    4.63936550025079
C        -1.11444093768121    9.66133856663458    5.27048686508611
C        -1.60644302940619    8.82276112478757    6.28785912598088
C        -1.67705684623532    9.29099722060603    7.60139989816634
H        -2.04579536994591    8.65080975907024    8.38846723675529
C        -1.27056430098973   10.57019079868068    7.91088324544550
H        -1.32891330702903   10.92238716672049    8.93074638632349
C        -0.78358086737104   11.41390882832882    6.91847377518466
C        -0.71676828096927   10.94048624828440    5.61182816588414
H        -0.33847850592012   11.60321251099808    4.84932948185249
C        -0.33910334106119   12.80122195021283    7.26019883393897
H        -0.02373238046258   13.34072078088947    6.37141879341285
H         0.49357725499036   12.76794487570450    7.96207948196027
H        -1.15016192163275   13.35168895524602    7.73501004847988
C        -2.00484272233048    7.47623913101139    5.90967241811691
C        -2.62435197719726    6.54982403438842    6.75146705383105
H        -2.86767296039652    6.81701407492436    7.76671619666433
C        -2.94023286549504    5.29519432398585    6.26926397993689
H        -3.42869847780582    4.57395494945765    6.90776344821245
C        -2.62393998799024    4.97202472690752    4.95632769069546
H        -2.84790578114236    4.00077673208828    4.54653401246149
C        -2.01872193058620    5.93802108751920    4.17603734756952
H        -1.75206754263639    5.75299350266621    3.14575450662099
C        -0.55562985087215   10.45898994024983    2.51628310864016
H        -0.50787378325899   10.23938254728994    1.45533686323558
H         0.42823188450075   10.78596316013946    2.83400261639960
H        -1.25837284044983   11.27238813454976    2.65922501020963
C        -2.49495158792594    7.69288707127246    1.46275589427397
C        -2.93968278580363    7.01617199274753    0.18561045582503
H        -3.14195111971071    7.78659507326219   -0.55605502683072
H        -3.85600745645545    6.45958805565516    0.36324850314940
H        -2.15477835693849    6.36402469156006   -0.18659926764652

