66
CSD_code = IDAJON | q = 0 | S = 0 | Stoichiometry = C31H25LaN2O4S3 | MND = 9
La        2.95567678049742    3.45653632786000   11.65649381645430
S         2.37131392076512    4.46929249476060   14.35749027449592
S         2.94116464944739    1.51916510217847    9.44623136879370
S         0.04913399695705    3.25500294761776   11.14362771915631
O         2.19604367107561    5.60993983426807   12.07427382802474
O         4.88972024524842    2.93703988641662   10.29675927630095
O         1.63424528811780    1.76809532334411   12.48693157320578
O         2.30994775492850    4.66937699060997    9.27299400290164
H         2.10101856124743    3.91170679731938    8.70026603592648
H         1.46097921753541    5.10590540831973    9.44771245027840
C         1.97638035313001    5.73732365925415   13.30577206350580
C         4.55157105108565    2.05326966508338    9.47292819583301
C         0.44179028068732    1.92455330049061   12.11572252987061
N         4.68002683784155    2.28079371228554   13.34190130540779
N         5.05986396018392    4.84724355104972   12.42374425054530
C         4.33695965691479    1.13685913503063   13.92099548633376
H         3.64501535346036    0.51247330746146   13.36759134336573
C         4.81580106153105    0.73956201417437   15.16098768738454
H         4.50189064358162   -0.19759199095527   15.59234239338615
C         5.68689644821936    1.58124653919247   15.83241172358516
H         6.06054845682365    1.32435840631717   16.81251109461331
C         6.07287727621601    2.76239860528455   15.22314880437420
H         6.73751741077814    3.44469298255284   15.72905094796686
C         5.55878997871843    3.07676051220275   13.96601721912919
C         5.95504601400132    4.31614360498455   13.26262763666720
C         7.21050254917925    4.89244893907138   13.45656657507390
H         7.93361390674018    4.42621218634455   14.10719607808687
C         7.52844472934218    6.05511723354737   12.77676747318539
H         8.49632798162349    6.51657525197643   12.90707063530155
C         6.58633878843216    6.61049811750814   11.92606290520853
H         6.79248662425494    7.51804534835154   11.38134372092042
C         5.36853848748225    5.96322908012726   11.77875358894766
H         4.60303533207594    6.35690761289318   11.12002059984042
C         1.39585287022183    6.98019898720760   13.83599535044022
C         1.14965720520383    7.15611022172090   15.19529540131670
H         1.38424013386659    6.35164252221515   15.87548475295243
C         0.61219451661933    8.34385134506164   15.65196492286443
H         0.42177479768075    8.47668774889510   16.70683215793622
C         0.31571260823629    9.36454361505868   14.76183100060000
H        -0.10375687970500   10.29208593239145   15.12346892588985
C         0.55513030927816    9.19446071973458   13.40719824759602
H         0.32119340672211    9.98788078278132   12.71233709737436
C         1.09168641621188    8.00950909667879   12.94449144342432
H         1.28258654104688    7.85674852155798   11.89264022454926
C         5.52518108556767    1.47912224914722    8.53104658921640
C         6.84083748515234    1.94170190919069    8.56283667796449
H         7.10175500243539    2.70716698246782    9.27893618927558
C         7.77987372517483    1.42706953136264    7.69120840536177
H         8.79725495798176    1.78975143722099    7.71890302479685
C         7.41740480161659    0.44641204003613    6.78107974012917
H         8.15268700962449    0.04437598819265    6.09937884786388
C         6.11170747314563   -0.01786958165830    6.74525763837874
H         5.83042932474493   -0.78188433522162    6.03570502340857
C         5.16750143944599    0.49391188853666    7.61401329071850
H         4.14728673798501    0.14230424244503    7.59617126948315
C        -0.60545718964228    0.97283189108397   12.51386147045551
C        -0.28889838553193   -0.03252472730727   13.42789944495324
H         0.71260086642585   -0.07193949597609   13.83021965578221
C        -1.24678811445538   -0.95053066204679   13.80983644392710
H        -0.99738199607104   -1.72730831860771   14.51808426700963
C        -2.52715328954130   -0.87696401907662   13.28402629470750
H        -3.27485149878051   -1.59792631996719   13.58117058336306
C        -2.84800906471112    0.12134820390086   12.37747202695487
H        -3.84615757089757    0.17786107306746   11.96887276807891
C        -1.89508107571065    1.04405972356874   11.99237543500043
H        -2.13152091748734    1.82512891941124   11.28609078421448

