86
CSD_code = IDAMUX | q = 0 | S = 0 | Stoichiometry = C39H44N2Zr | MND = 5
Zr        2.35622967788959    3.22154642205738    5.60309661297529
N         2.56528499248330    5.39086407998922    4.82095674545890
N         4.28058316138099    3.40584115335865    4.82209530012104
C        -0.94135322807680    3.54666049914458    5.77583690141001
H        -0.97926126516089    2.46344308141778    5.86919853273326
C        -2.09113391414429    4.26264390118743    5.98200187119845
H        -3.02802119851928    3.76236886645872    6.19217388107279
C        -3.21145594540556    6.42358522407507    6.34015512520882
H        -4.13441659030949    5.89693825259623    6.53959091743497
C        -3.14737988853321    7.78352909124910    6.45893874803354
H        -4.02323785117941    8.35352696890892    6.73269501356258
C        -1.92549008372519    8.44128175607541    6.26423482735894
H        -1.86761667071877    9.50971941150870    6.41688218235585
C        -0.80834268387416    7.74111540963586    5.89660302203518
H         0.13449696308253    8.25934269092252    5.80111944277802
C         1.51499124852387    7.30957080567972    3.90814887995245
H         0.61780559842964    7.87053839361607    3.70180690926504
C         2.72525976937266    7.70311099976999    3.36656085352048
H         2.78351576103801    8.60515114975365    2.77449272051940
C         3.85862495652885    6.92199455380433    3.55269041120801
H         4.80962154739974    7.20754551095438    3.13130058694085
C         5.18113670806064    5.56026961898207    6.71907362130385
H         4.09816328104601    5.57703709669216    6.79889138220224
C         5.95485609509900    5.94466975180568    7.79729175801887
H         5.48513821653211    6.26628217691641    8.71505647214400
C         7.33380083980258    5.92114352890747    7.68590896436995
H         7.95422664033546    6.23315393879773    8.51324298571763
C         7.91982685367893    5.48393118121893    6.51281029731263
H         8.99618530946391    5.46016246609568    6.45075248116102
C         4.81749334654607    4.69530685887948    4.41784802001426
H         5.35872422866223    4.62775173125303    3.46264983675128
C         5.47974523323823    0.09188139761865    3.77842970773140
H         6.05960493524753   -0.72395968399518    4.18213325913133
C         4.93269084690708   -0.03127233266899    2.51278781795828
H         5.08180212034209   -0.93651596857012    1.94286023827400
C         4.19011181225917    1.00664250949834    1.98238093534321
H         3.75825576567112    0.89148976830917    0.99894635303523
C         7.84037159212837    4.56869458774528    4.16711596250256
H         7.19259691365806    3.81759978468908    3.70374641657599
C         5.89912319965783    1.41318989433702    5.89753568118448
H         6.03517831164237    2.48905394739628    6.06284579483008
C         3.08346897238472    3.25533750535892    2.10228133115254
H         3.16873337444137    4.16780794459504    2.69890466612355
C         8.03814656109338    5.73042492477950    3.18743635865938
H         7.08663184817266    6.19105880994411    2.93131835897167
H         8.50985169821956    5.37870951893646    2.27221371747337
H         8.67389223603330    6.49196234593534    3.63470139950106
C         9.18093670885791    3.88479934177613    4.43875658022646
H         9.50303410122838    3.35066456083965    3.54706324103677
H         9.08760148360050    3.17081653122016    5.25288944726037
H         9.95402467846306    4.60715330671871    4.68963389869424
C         7.25491256172866    0.72250247701001    6.04654075771594
H         7.90183376496857    0.95770628096453    5.20459494395493
H         7.14322748349358   -0.35766051567311    6.10617642010795
H         7.73994184841165    1.05847850926733    6.96101533747505
C         4.92021075497847    0.90210227563418    6.96087463497607
H         3.98449360712910    1.47634453736561    6.90829848646373
H         5.35474865119590    1.01500807713894    7.95305161998256
H         4.70329017515331   -0.15263616395605    6.79639341388252
C         3.48180427579199    3.61162909660945    0.66653124128685
H         4.54216668062378    3.84904872716820    0.61259208423091
H         2.91705896697042    4.47830210109158    0.32770475152409
H         3.28077890316365    2.79104169640783   -0.01677790687691
C         1.61366125194601    2.81486545469495    2.16342714013030
H         1.30299711272922    2.68944719537389    3.21378417168313
H         1.47637189591897    1.87228182870838    1.63586453668337
H         0.97825532914161    3.56790321251865    1.69640676870524
C         2.41023912715515    3.54351817708843    7.83153686518516
H         1.82138259866965    2.77065760512581    8.35227235225839
H         1.93852109985552    4.51238441468668    8.07027584797453
H         3.41326571320926    3.54903807730473    8.28416989233760
C         1.70725224302467    1.07409991352511    5.38687568873966
H         1.55212200036195    0.59575569660141    6.36916295444185
H         2.45239805259034    0.45898101422856    4.85644045600351
H         0.76008611863616    0.94230149723326    4.83815330982636
C        -2.07177711892401    5.67326124495965    5.98750402526522
C        -0.85622524291262    6.34637708825114    5.69159096220780
C         0.26281784296790    5.55740805034736    5.28487053369780
C         0.27652914152206    4.15402749933063    5.37411362456063
C         1.46287477810202    6.14652789556178    4.68728214895912
C         3.71718849428565    5.73203273989529    4.25465753458851
C         5.76622198621413    5.14712514670439    5.52488178977158
C         7.15970585345870    5.07133739241791    5.42312560254516
C         5.29713096774288    1.24589187350442    4.51982044877330
C         4.51718481491749    2.30523445045718    3.99535545180159
C         3.97426999681843    2.17841016624355    2.69504563934741

