45
CSD_code = IDAMEH | q = 1 | S = 0 | Stoichiometry = C18H22AgN4(1+) | MND = 2
Ag        5.41012646985980    3.14152786755706    4.65095909048320
C         5.51647928375513    2.91694560961640    2.45807221723004
C         5.30934263191134    3.33023036418484    6.84735647510816
C         4.82144467248594    2.56112096453050    0.36477099218743
H         4.12201332573351    2.43799876828379   -0.43635506147129
C         6.17606209158393    2.52869042269823    0.35928803259506
H         6.86609893674425    2.36872994407085   -0.44299767132558
C         4.41656431438634    3.35721352085471    8.89523133050229
H         3.64360871851251    3.38007701637705    9.63566012631157
C         5.76414071581019    3.32774394886649    9.03448199578801
H         6.37372350414533    3.31578598572626    9.91406237031706
C         3.04780212856004    2.94917142325572    2.05331885211052
H         2.42490694819988    2.50513900883864    1.27372359729884
H         2.81250670536665    4.01762514348959    2.11481809666873
C         2.79365962444897    2.29643747083305    3.38623286171072
C         2.78040978107285    3.08825695848919    4.53045912185756
H         2.79446972161113    4.16853179862996    4.42604776116766
C         2.67797782204767    2.53134685245482    5.80155370026009
C         2.53694930801668    1.14815221331523    5.93354329409589
C         2.50545024397996    0.37375282669859    4.78133587965771
H         2.38201532600925   -0.69478620807033    4.87944562440508
C         2.65431773591772    0.91229724806090    3.51005913376383
C         2.66124189665272    0.01814552228807    2.30931544239306
H         3.59056055892966    0.12118558194901    1.75104691122035
H         1.83608750514935    0.26509251685999    1.64209936452152
H         2.55538548110769   -1.02086787253971    2.60673535412912
C         2.41945455591547    0.50219893243060    7.27898482072081
H         1.53849061318280    0.86883104972627    7.80497024656928
H         3.29337613314541    0.71588248912778    7.89277052238110
H         2.32862529686290   -0.57532633368920    7.17850576270529
C         2.81532795114181    3.42937755554662    7.00244287540555
H         2.60667032450328    4.46577013083917    6.71447614238450
H         2.11367161715445    3.14378090540738    7.78922360804013
C         7.95427954781942    2.79367836345172    2.05139125272901
H         8.00062735185555    2.97041027993691    3.12878675840305
H         8.47475642509926    3.60040105177181    1.53382416146605
H         8.45110446770743    1.85095931899102    1.82001389622143
C         7.69622545887279    3.28228747505347    7.49775618318308
H         8.14572756741023    2.37534834566620    7.90409640146834
H         8.18717964269963    4.14744478917218    7.94496509793130
H         7.84592045508852    3.30426623922985    6.41552712997627
N         4.43641651587148    2.79709756605647    1.65264992408781
N         6.57717318885043    2.74693388966006    1.64580619879698
N         4.15715773575540    3.35664225437309    7.55545050439761
N         6.28686969906628    3.31097079992875    7.77349362014416

