45
CSD_code = IDAMAD | q = 1 | S = 0 | Stoichiometry = C18H22CuN4(1+) | MND = 2
Cu        3.85723217867742    1.97105696380440    0.00531059398132
C         3.87832964907995    2.86018711852828   -1.81347989782907
C         3.74412888048373    1.13547479446490    1.84548999167717
C         4.60832452580551    3.78263017003411   -3.71164401490475
H         5.31836367488107    4.07840240360850   -4.45588794428109
C         3.26540648077429    3.95650925539355   -3.66007868494615
H         2.59641688380394    4.43179426706543   -4.34673371522194
C         4.32220320058172    0.32127070704977    3.84278782440501
H         4.97552611805823   -0.03894050937220    4.61017590899437
C         2.97424951942293    0.45974832406482    3.83021431934283
H         2.24424368227522    0.24782035070705    4.58326326431237
C         6.33096038395082    2.71560964049689   -2.27827351663252
H         7.00037427208777    3.32841801932593   -2.88493564761610
H         6.46553733381946    1.66716782038680   -2.56622738313774
C         6.61111458574656    2.88073922040239   -0.80908027032550
C         6.45531204543064    1.77993856830806    0.02098093853069
H         6.27892041579752    0.80911405539652   -0.41979098509192
C         6.53164048034895    1.89166222288985    1.40193937194265
C         6.81575005222517    3.13185767015402    1.97439010575425
C         7.01951600595146    4.21600322668088    1.13119655350528
H         7.25218190548073    5.17560820607278    1.56881969116329
C         6.89692223646006    4.12627521044747   -0.24888412438619
C         7.05875935418535    5.34646891568197   -1.10120395429413
H         7.87852520848506    5.21738134453936   -1.80713534858323
H         7.27620948132099    6.21498581545622   -0.48649826755908
H         6.15092160636515    5.54835408112741   -1.66862855004748
C         6.89317203480552    3.30673110807514    3.45936811106132
H         7.10747098875745    4.34128518949907    3.71085344329059
H         7.68404822641506    2.68586149649091    3.87903036069312
H         5.95356252571022    3.02719550786259    3.93447291323267
C         6.17582552044453    0.69180527944966    2.23705962078058
H         6.35143082312745   -0.22433664400975    1.66226992139169
H         6.77536521631861    0.64695411826721    3.14810004170500
C         1.46612826879893    3.36690838348435   -2.07740712257799
H         1.40231498525954    2.91462230858797   -1.08934519014561
H         0.86554640071124    2.78569291419235   -2.77906643852927
H         1.06956225345246    4.38208553606978   -2.03481215547239
C         1.29381421951895    1.24564783838420    2.20141606240935
H         0.64047632067414    0.41278320391388    2.46145972091814
H         1.26824721935326    1.40069657804860    1.12408636854915
H         0.93015142637589    2.14562107276944    2.70133949658018
N         4.96548427729549    3.11379669970308   -2.57781766956774
N         2.84079330805842    3.38769654323112   -2.49432094244241
N         4.77557899358093    0.73837926225382    2.62571303567044
N         2.64265682984299    0.95583574101164    2.60291416370115

