79
CSD_code = IDANEI | q = 0 | S = 0 | Stoichiometry = C30H44N2NiP2 | MND = 4
C         5.19220580014767   13.47856672948844    2.17198049225251
C         4.68602795618819   13.36031293745422    0.87887598131724
H         3.87715579582746   12.67061019417550    0.66688737271116
C         5.24381340555701   14.12463377483733   -0.12036804872495
H         4.86666398985493   14.04463633170698   -1.13077710159525
C         6.29863326572444   15.00373382038752    0.14701384583009
H         6.71143014079360   15.58668167302587   -0.66444484954724
C         6.81739141904051   15.12874694445899    1.41496904133226
H         7.63735416394430   15.80465315404323    1.61434844267019
C         6.27422998810334   14.36505418390553    2.44756587506114
C         6.54019359945975   14.22772415697566    3.83128148011107
H         7.29781909794005   14.73514492248267    4.39686419735061
C         5.64608035123282   13.30746936529967    4.30728126474682
H         5.57178769756798   12.93178370968374    5.31375929139606
C         5.46821104481393    9.65362664371367    4.35276766904410
C         5.29208191071437    9.77155209891532    5.73018078223545
H         4.56166544131977   10.46411830616037    6.13246642186142
C         6.07293723262033    9.00342472526276    6.56323384773759
H         5.95293999081465    9.08272039476313    7.63507780124446
C         7.02779774651824    8.12128764477235    6.04642553622076
H         7.62283492996777    7.53497094267560    6.73261596503003
C         7.22316728686117    7.99763619227928    4.69029077228612
H         7.96797894987772    7.31968123580265    4.29717561321393
C         6.44840726389810    8.76523224151554    3.82128387957819
C         6.37058294058961    8.90531468910670    2.41466222644083
H         6.96700882917362    8.39792458714579    1.68105718375547
C         5.38985764605882    9.82853791274064    2.17168988887451
H         5.07460576517961   10.20701860180407    1.21410110191323
C         0.33839158410012   12.23056235388767    4.25376772447138
H         0.34428826262847   12.07981267293843    5.33550271856222
H        -0.52502832443996   12.85334798504941    4.00413490019677
C         0.25253610809898   10.87604606752958    3.55267650579111
H        -0.01338350481270   11.02632990506761    2.50404372169214
H        -0.51736361019724   10.24853469480495    4.01013418703988
C         2.33292766363773   14.02276720916471    5.38579542883484
H         3.21813532035980   14.61900448506172    5.13069894085414
C         2.75464917786249   12.98577892975446    6.42636127723568
H         3.33724248237462   13.44842890764523    7.22053935535780
H         3.37264298738645   12.22024226328428    5.94341256455428
H         1.89226530833412   12.50072392212424    6.88112252030012
C         1.23864372335473   14.93853515080649    5.92270250204546
H         0.31591063756555   14.39023639286239    6.10367642979741
H         1.02809138113171   15.75776229793891    5.24019884906841
H         1.56318232698929   15.36860145138194    6.86904077423500
C         1.30496667104520   14.45778497412689    2.68947495488345
H         0.43524875338335   14.90270781617055    3.19127628740081
C         0.85483481016402   13.85909135418757    1.36060182697105
H         0.47275750122080   14.64200525012845    0.70765961091313
H         0.06465711592975   13.12355111037810    1.50258016393040
H         1.69543467798394   13.38404037129336    0.86052104460642
C         2.36638883581323   15.52747869747884    2.46047070404630
H         3.25963858368789   15.09280996466039    2.01691663873185
H         2.64832983292899   16.01912413536791    3.38838176505155
H         1.98372381373902   16.28608528476281    1.77935400906437
C         1.58901961150847    8.65115326974957    4.81744722611138
H         0.62322549924874    8.20458222031797    4.54521368679760
C         1.48110456049969    9.24176282546913    6.21972887508297
H         1.26983791100177    8.45468705639487    6.94163486384642
H         0.68174763280592    9.97855207502581    6.28102669471125
H         2.41973651640228    9.71327139934829    6.50066196256177
C         2.67722852435726    7.58491678475685    4.76927670012025
H         3.65213142993988    8.02193678021577    4.97437754799558
H         2.71760256525021    7.09527846770882    3.79926626971279
H         2.48086344012240    6.82417407392802    5.52326888411026
C         1.91294529175334    9.10084571416846    1.95346840746144
H         2.83513667215900    8.50669581231377    1.97960685693048
C         0.72247909410710    8.18302270789914    1.69895908758482
H        -0.21752392771841    8.72927388021454    1.75143442047750
H         0.68749658810082    7.36199965698698    2.41027390861874
H         0.80551078596720    7.75551496707479    0.70085878557629
C         2.06286855328362   10.14257657978428    0.84521841283139
H         2.42980734123034    9.68421164657329   -0.07103184827761
H         2.78179003790873   10.90671665536388    1.16294551283107
H         1.11440092488115   10.62847277287520    0.62144559520453
N         4.81191355133208   12.86319942553433    3.32391199449611
N         4.82099457269381   10.27243688842831    3.32895844816477
P         1.92445322737265   13.11080546531401    3.81746740455862
P         1.90303310375320   10.00619258135665    3.57791988174977
Ni        3.45162072135787   11.56352852930037    3.50084904063777

