31
CSD_code = IDAPAG | q = 0 | S = 0 | Stoichiometry = C14H12CdI2N2 | MND = 4
Cd        6.81955172308620    3.63930474696979    2.23499752750141
I         7.58080930837850    4.54496900751268    4.64342484358349
N         5.53465620073601    1.70802113080608    2.72942120700430
C         4.31060853700865    1.73495541327103    3.22249411669677
C         3.61229238608439    0.55017730658957    3.51620078888383
H         2.61377522384323    0.60704150834375    3.92039554757481
C         4.21032659880965   -0.65932767048818    3.28147422640494
H         3.69569893558193   -1.58534183794028    3.49299903963113
C         5.51452090018246   -0.70020636572969    2.75758672941269
C         6.14871387715581    0.53531009913036    2.49877228743097
C         6.19154441621051   -1.92126573521380    2.48798520048502
H         5.67573658593255   -2.84655097137940    2.69711383939973
C         3.69812621183444    3.07390102859832    3.47287952893729
H         4.19586348262097    3.55272728422510    4.32075633536658
H         2.63998748464607    2.98302799663589    3.70193878374159
H         3.81686797622562    3.71960346743673    2.59771991411691
I         6.05760653875292    4.54485427858658   -0.17415828971745
N         8.10423776632924    1.70794308414808    1.74036682227485
C         9.32827742334596    1.73492061181929    1.24734685759304
C        10.02659356782739    0.55013791943723    0.95366130359612
H        11.02514462484251    0.60700074402296    0.54955685115635
C         9.42852867488833   -0.65936903547945    1.18831814679605
H         9.94315716191785   -1.58538348923654    0.97681148557060
C         8.12429574511797   -0.70024417106783    1.71214431871610
C         7.49014211875663    0.53527293891771    1.97098421557817
C         7.44721885809858   -1.92127655950582    1.98169640805917
H         7.96300565687069   -2.84656672282304    1.77255790754775
C         9.94071248827234    3.07390036478429    0.99710273158284
H         9.44296429079478    3.55283418641371    0.14930158474727
H        10.99885189695171    2.98304314456459    0.76802117908377
H         9.82198333889623    3.71948629665052    1.87232856124408

