79
CSD_code = IDAQUB | q = 0 | S = 0 | Stoichiometry = C40H34Cl2P2Pt | MND = 4
Pt        1.89801109852437    2.58748096662244    9.99161395183829
Cl        0.70950108663819    4.34696413974946   10.85839777314634
P         3.56668916466552    3.17216728721416   11.42284501860562
Cl        0.14486097471063    2.02149357548498    8.59159773198275
P         2.80455310117581    0.79031179857879    8.89932420640717
C         5.04643942888633    3.98394866904596    9.23997381455343
H         4.18765694499637    3.62041951769794    8.68405150536741
C         6.13196245665616    4.54038329609726    8.58770268761216
H         6.14015552286267    4.60379199118528    7.50934886410946
C         4.28197496690378   -2.88755354307984   14.72054756098034
H         3.23379791928385   -2.88945850157587   14.47565832735405
H         4.64582035851383   -3.76007469638189   15.23529414050991
C         1.43700080391740   -1.34473232741813    7.63270047554699
H         1.96325249043498   -1.09837849038718    6.72203299525412
C         3.99097351822549    1.81466787913363    4.58409866854554
H         4.26572002715005    2.05938727455782    3.56859473906007
C         5.73886934354366    0.19570922059705   13.26935928957576
H         6.76925555703355   -0.06417415615077   13.46747677551583
C         4.13614982252936    1.69880895294892   12.31878695848692
C         3.40047984306164   -0.30425507451705   13.44148463587380
H         2.59459985385768   -0.93749794818585   13.77884527926841
C         3.11474229596805    0.85516006354032   12.75612317148048
H         2.08685858050384    1.14038130596372   12.54714120437657
C         5.46960821725588   -1.76526206555555   10.70386573914202
H         5.43273984428082   -2.68727901134944   11.26554414054510
C         4.33007668683619   -0.01611419617625    9.50965766566448
C         3.26041578917422    4.37023816605054   12.75377212365447
C         6.09396843282328    4.40876246264882   11.36346256592347
H         6.05991175850418    4.38663454031127   12.44437131941236
C         1.65326763307435   -0.60819236906954    8.78913084627902
C         4.72584195117023   -0.65909588601696   13.70697455231110
C         7.20358549679814    5.01989993735675    9.32312439478407
H         8.05352123759481    5.45455760611397    8.81818241005694
C         2.79106687538959    4.95866714023537   15.03130600207583
H         2.63567281016068    4.66397519991453   16.05902488201682
C         3.28111178083472    1.17671491727013    7.18958471214008
C         2.85796069296834    2.37334589775586    6.62185365975581
H         2.23457873383591    3.04512871012275    7.20178935447293
C         5.45545187404760    1.35761288113715   12.57873521614189
H         6.26004782517882    1.98960631861565   12.23341014197286
C         0.52224751035183   -2.37966068507398    7.63937480341589
H         0.35255057022201   -2.94105017985761    6.73102951515398
C         7.18011594200013    4.95979067903411   10.70829241818295
H         8.00965804430460    5.35149560054062   11.27872694357590
C         5.02849776038404    3.89926113292174   10.62697387858035
C        -0.19679451281391   -2.71036108850514    8.78905326429343
C         5.55637841811936    0.60017927139705    9.27336255280860
H         5.59002233051252    1.52253769977350    8.71077897014369
C         0.02268458335929   -1.95326513170214    9.94348795053582
H        -0.53568302720804   -2.16613544800089   10.84191075182009
C         6.72655956507508    0.03137027601185    9.73682919037903
H         7.67249687548605    0.51422167657611    9.53859305436056
C         2.90498230204338    6.66965545282522   13.35228365015664
H         2.83352089119773    7.70950798453302   13.07002529309725
C         3.21247883511929    2.69028219716435    5.32264662068077
H         2.87902640091221    3.61971789608412    4.88562042737719
C         4.29598791993297   -1.19860381065808   10.23962179938251
H         3.35046648949148   -1.68355822483837   10.43550636989961
C         6.68628255844108   -1.15588494471999   10.45005604831712
H         7.60135554084229   -1.60475075112838   10.80692082818095
C         5.09208309675147   -1.88307344805068   14.40792917199391
H         6.14120976910082   -1.95417074570091   14.66859014575434
C         3.17613333682782    5.71349947680372   12.39418416152233
H         3.30993499782873    5.99440912173139   11.35849674775396
C         4.42022340157885    0.62293047034901    5.14754164548685
H         5.02870305190878   -0.05922998441799    4.57153350781391
C         0.92981012284945   -0.91767970756618    9.94021830606481
H         1.07256370501596   -0.30913952198113   10.82613859783187
C         3.06033121295769    3.99381022897698   14.07560261236944
H         3.11347780152975    2.95198247857798   14.35924896775938
C        -1.86571296226126   -4.29907997827211    9.73555260836229
H        -1.80853901520451   -3.90926225237244   10.73724993147090
H        -2.54757838134929   -5.11909179345129    9.58923899767154
C         2.71313172611804    6.29320623339042   14.67287428038268
H         2.49602425865351    7.04100747717233   15.42126753230608
C         4.07219385261269    0.30277764937205    6.44680696612271
H         4.41865909701555   -0.62077628363518    6.89130929999823
C        -1.14960044224891   -3.81110445995028    8.72940996641677
H        -1.25653642742181   -4.25671601343106    7.74762272078890

