30
CSD_code = IDARAG | q = 0 | S = 0 | Stoichiometry = C8H15CoN6 | MND = 6
Co        5.51669010037271    1.64687022502793    1.73860263204601
N         7.46221724498184    1.43603095973581    2.57400905695874
H         7.79760701915378    0.47472723644896    2.62285045981464
H         8.13059895256345    1.94605420514586    1.99846723877421
N         4.98849262552593    1.77615294471285    3.79687828282869
H         4.80442158775745    2.77841247929406    3.86783109004531
N         5.06704222644096   -0.43369052348896    1.89772099776801
H         5.02432261619528   -0.74123990022461    0.92556797736997
H         5.82007941088595   -0.96785649595122    2.33232940298783
N         2.71674732966636    2.09277257624580    0.86237477706590
N         6.57907135674627    1.10936411512473   -0.97677300105872
N         6.07616261878167    4.55903472839502    1.75505833440340
C         7.41389885727022    2.02014153748585    3.91859003744180
H         8.30786043621047    1.78142858603689    4.50963586124520
H         7.34428060351712    3.10615042885663    3.81502014120974
C         6.16510168036999    1.49513506794524    4.62384623100166
H         6.26047456935337    0.41280925472176    4.75091539222399
H         6.07629611545205    1.94453100794299    5.62250331333428
C         3.77666061776246    1.09447234272450    4.26464294443048
H         3.63353522777886    1.27652328173063    5.34073331792611
H         2.92989418446940    1.52604085960922    3.72577319234095
C         3.78021924163580   -0.41663645950070    4.02301674066064
H         2.86790437765204   -0.81966287735785    4.46503813676389
H         4.62162132409690   -0.88929587069433    4.53738317467574
C         3.79974347994366   -0.80117398378545    2.54549649282701
H         3.62657576606005   -1.88360652105392    2.46258437181368
H         2.99223788559532   -0.28280079970914    2.02399125569276
C         3.82913173039831    1.97429620556765    1.12270962691096
C         6.11307073867024    1.41725300443570    0.02671878659557
C         5.81514007469210    3.44716238457817    1.63198373390124

