84
CSD_code = IDARAH | q = 0 | S = 0 | Stoichiometry = C33H49PZr | MND = 13
Zr        7.66709679189594    3.30644467980662    3.52799103971655
P         6.78017937401941    5.48710652421403    5.37536553425596
C         8.44653932460229    0.85153664175447    3.88329243079051
C         7.57988700392173    0.90005721229755    2.75873492293918
H         7.86909500669964    0.58065442824404    1.76203248809699
C         6.25793855299484    1.18321645459841    3.17064627913538
C         6.29136110918066    1.34240373126328    4.58732423731737
C         7.64449606871769    1.09543390801871    5.03840430819892
C         7.91283397935836    1.12382597243349    6.41865939714469
H         8.90678995893668    0.92318574762258    6.79108076761209
C         6.89985501548080    1.39970014150611    7.30280649753966
H         7.10205655838798    1.40919126566291    8.36513118940879
C         5.59125744270231    1.66301836717307    6.85956710088514
H         4.82331160040766    1.87596017716598    7.59074769330442
C         5.28222524359111    1.63572702078277    5.52237533315557
H         4.26430567006823    1.80191051351433    5.18917754879009
C         9.69780781349891    4.70530162999467    2.72131917945774
C         8.58075253782990    5.53117097140476    2.47500273344616
H         8.44733093969443    6.52240809925333    2.88924851655880
C         7.74323387466207    4.95369922397786    1.49772347750032
C         8.34161100217747    3.72124978944105    1.10534959265447
C         8.09086740468894    2.84317671920552    0.02847176923897
H         7.23396682021023    3.00077666900897   -0.61299110380561
C         8.98450228878028    1.84088806147594   -0.25057316865388
H         8.81013927244355    1.18102762414533   -1.08872754638079
C        10.16129696374652    1.67772197751604    0.50727050548243
H        10.85280471510579    0.89477357157809    0.22945403877162
C        10.46035261368871    2.51866558455216    1.54885839723207
H        11.40354163623003    2.42640674982524    2.07157535222226
C         9.56760821267110    3.56076665376516    1.88111242294032
C         9.82823836085660    0.24369260714147    3.83929059284627
H        10.15936950107313    0.25680578263396    2.79386366577971
C        10.86421642436545    0.99517277156650    4.68103109568886
H        10.71666091303471    2.06982679537397    4.59427629942315
H        10.77963975271532    0.72564519825637    5.73045086696774
H        11.87205433809341    0.74496456794066    4.35299650626957
C         9.74798987852507   -1.22397336971148    4.28488199842826
H         9.37728091297978   -1.28909825655795    5.30497680447542
H        10.73046988352520   -1.68981581535541    4.23888578550295
H         9.06881785269467   -1.77731812389019    3.64044668861777
C         4.99158418020791    1.04752947597153    2.36458231687659
H         4.20268282730688    1.62502735365874    2.86152853483505
C         4.57163794226477   -0.42903295217434    2.34736605233134
H         3.62855369653596   -0.55318135606035    1.81885516444542
H         4.45444996655068   -0.79977316469286    3.36289522255753
H         5.33132158574345   -1.02767914922397    1.84957579700059
C         5.13561906071753    1.57796624166346    0.94119706555862
H         5.42231693890974    2.62773399209777    0.97517857895061
H         4.18902180036942    1.49064606913384    0.41001058926963
H         5.88853614128923    1.01617705363228    0.39260849245257
C        10.92661833517842    5.08079846944789    3.51121522069503
H        11.35339584929056    4.17516024115603    3.95957422973512
C        11.97103765709502    5.68363051590102    2.56088562847268
H        11.57737380886619    6.58666262962016    2.09960480732629
H        12.88006718522611    5.93652062101304    3.10268956660425
H        12.21856729376236    4.97879535428710    1.77126595924884
C        10.60662553066748    6.06367865677522    4.63647525109373
H        11.48040563708947    6.20994791720831    5.26882454648055
H         9.79350983634064    5.66974332972936    5.24498394072631
H        10.31587017994914    7.03063916766873    4.23095729209555
C         6.58214271540703    5.62722976784349    0.80996001161507
H         5.84677241463785    4.86488743927126    0.52356926009775
C         7.08109604477743    6.31761515937833   -0.46735306749442
H         6.25416870844743    6.78630048422998   -0.99689027060147
H         7.81222156398443    7.08253830277219   -0.21541401876330
H         7.55684151075355    5.59761444236704   -1.12825425293823
C         5.88719137890341    6.63874907029893    1.72042412179389
H         5.63109649858648    6.16285910998961    2.66638017114396
H         6.53501437738537    7.49168962119770    1.91177752534337
H         4.97540579680960    7.00387593583389    1.25129738000961
C         6.86754105159440    7.32985929353450    5.59390495567114
H         6.39776316230013    7.81914033659156    4.74312917377216
H         7.90915550602357    7.64044723635773    5.64382211984186
H         6.36034869470980    7.63672407598517    6.50663105652273
C         7.32055478977618    4.98543787216593    7.06993009057028
H         6.74487325434294    5.50467006968829    7.83666128177405
H         8.37808672683274    5.20835364815082    7.19724424732102
H         7.18968263064273    3.90736626468398    7.17010562160561
C         4.96242208748561    5.27078463446468    5.63539693151282
H         4.75755444688184    4.20545634936418    5.73742603750087
H         4.62570477240443    5.80148568111817    6.52628663141610
H         4.42097730607059    5.63932020131281    4.76628363832698
H         8.74660804578545    3.47328153364664    4.89307868334647
H         6.01009844784164    3.78281473434129    3.19659717490182

