60
CSD_code = IDATAJ | q = 0 | S = 0 | Stoichiometry = C23H25N3O8Pt | MND = 4
Pt        7.09476270743943   11.45757751953617    2.25242206291348
C         7.08309598251770    9.57678885275846    1.51976327149488
N         7.69905995941371    8.51790098302410    2.07410304259192
C         7.43244613033263    7.38501351513632    1.34251132801649
C         7.80484677155661    6.05921493149051    1.49572890090402
H         8.41820223982851    5.73855606266631    2.32297828300640
C         7.35020907668002    5.16159201991870    0.54716905332698
H         7.61610114537503    4.11924951960428    0.63541862145754
C         6.55177478607828    5.56849625284228   -0.51975832756827
H         6.21657381809502    4.83221938029657   -1.23427118506333
C         6.17596645891823    6.88939264735097   -0.68163980657818
H         5.55281450026128    7.19803753557481   -1.50608732767766
C         6.62607034627457    7.79638622720225    0.26420364264931
N         6.45672370912658    9.15303139675989    0.40826019561747
C         8.42792013967668    8.58865651050396    3.30982501449730
H         7.95302499396290    7.96138827643855    4.06581209039166
H         8.40872443630022    9.63455788510869    3.64891190899160
H         9.46086351370200    8.26389718693778    3.16835238503279
C         5.62702845419057    9.99983633480326   -0.40162035841154
H         5.97534693772858   10.00748760140035   -1.43659491032791
H         5.67389802450650   11.01440012703304    0.01571991617775
H         4.59288082977313    9.65342638899877   -0.37013664360721
C         5.40306049490800   11.16806634131274    3.32913541933836
C         4.88941488488578   12.31044514508281    3.84445422042718
C         5.69321415787368   13.52121928210866    3.65978723571443
C         6.89424229668756   13.34585394976970    3.05703035035026
C         4.70045219812596    9.89205262651840    3.49291658526958
O         4.90808163165956    8.89385950236669    2.82322154984525
O         3.79004487828879    9.89724086942914    4.48172365635984
C         3.06352725565591    8.69864276790799    4.68143631185842
H         2.54401068854134    8.81171047892690    5.62997126662167
H         3.74255651850262    7.84311552782710    4.71284579359793
H         2.34755512392102    8.54849215129317    3.86930561136853
C         3.63576764434177   12.41988349557031    4.65443909793597
O         3.60940171324381   12.49344938911039    5.85428058160286
O         2.55021339550736   12.41443248007598    3.87313274419821
C         1.31717066361018   12.59798700653120    4.55046614185110
H         0.53725836292367   12.51259995422588    3.79754575142697
H         1.29797439971031   13.58566365594137    5.01544348436626
H         1.19441373373013   11.83757303528005    5.32504368535144
C         5.11900991145499   14.81100002519084    4.08232716548131
O         3.95705230973420   14.97940645336373    4.37526432832410
O         6.01254992632188   15.81704994345439    4.07173019518594
C         5.50745183871019   17.08933842476463    4.43789897367353
H         6.36410630784872   17.75762842367061    4.48399054205869
H         5.00934939384275   17.03328503898906    5.40845970911938
H         4.78839769742290   17.44070410283379    3.69391751801764
C         7.82928989051581   14.45376807324572    2.85921852995469
O         8.02294997066772   15.04169006011822    1.81213262691118
O         8.57264062373887   14.67767268207143    3.96063448896405
C         9.53400760533419   15.71095167334442    3.86927604022590
H        10.42330134494330   15.35928329734357    3.33759823600167
H         9.79324200204144   15.98348698886177    4.88973707301336
H         9.11815632897933   16.56879967754660    3.33586620491778
N         8.63708018674427   12.04876395234825    1.13590268879222
C         9.16129275937300   12.85965869081152    0.50780866583351
C         9.84351986757993   13.83776085402953   -0.27657370121220
H        10.90652379468250   13.83710943624717   -0.03697839749422
H         9.41198005435449   14.80958768093668   -0.03187958614696
H         9.70690318180619   13.62945970620318   -1.33718194693398

