35
CSD_code = IDATOZ | q = 0 | S = 0 | Stoichiometry = C14H10N4O6Zn | MND = 6
Zn        0.37795513784141    2.48713087784548    6.19517969834198
N        -0.35116386494391    1.97753360902507    8.03814941094519
N        -3.29095976850142    3.33671835568528   11.51872763504271
O         1.57434249797725    1.00997437946456    6.49660095110784
O         2.14181266842857   -0.50129021539123    8.03097372550338
O        -0.93356930462951    1.00624834258116    5.08641617889293
C         1.49511853545769    0.44618720287333    7.63129439233176
C         0.43321018406568    1.04499945079467    8.56971537089807
C         0.30732335417627    0.62867824268140    9.88980452496279
H         0.97281752509339   -0.13770232061429   10.25495886033236
C        -0.65903829624511    1.21565061365931   10.68202523050115
H        -0.79140391807017    0.93120827771587   11.71572347077922
C        -1.47394664772293    2.20234978302914   10.11564032575573
C        -1.28169962839034    2.55333713475525    8.77862164092219
H        -1.88130062873565    3.31145135708885    8.29455964576349
C        -2.47946375458082    2.83551730931102   10.88510754738288
H        -0.49697103152591    0.15053435900717    5.15702582097796
H        -1.85114024441019    0.89877083808688    5.35340980090944
N         1.10209140539420    2.99409808059610    4.34951036923393
N         4.01632434580242    1.61714187618150    0.85365419502929
O        -0.81730810040890    3.96580211496652    5.89620484279894
O        -1.38317935687903    5.48051402816151    4.36466599758992
O         1.69055767147485    3.96533501447535    7.30398463902940
C        -0.73881523087038    4.53042256258778    4.76188173267593
C         0.31778755786053    3.92788087740790    3.82000025431601
C         0.43838538177038    4.34153139446935    2.49859139396631
H        -0.22643058244881    5.10948861884466    2.13552691240072
C         1.39846721709466    3.74966803558019    1.70241450257501
H         1.52608681607600    4.03135251524484    0.66736892316123
C         2.21293221943763    2.76126203312660    2.26646580486692
C         2.02696123868479    2.41394678965594    3.60532376615738
H         2.62707531447949    1.65527014526362    4.08787083890513
C         3.21118579180292    2.12243492363070    1.49222124544048
H         1.25548972264999    4.82206309917568    7.23485323003801
H         2.60836577279514    4.07139029303235    7.03672712046383

