31
CSD_code = IDATIT | q = -1 | S = 0 | Stoichiometry = C10H8N6O6V(1-) | MND = 6
V         4.21173807304215    8.65220937200482   12.96515217142709
N         5.30239345402543   10.76476389585192   13.04750392415454
N         5.47271790824559   13.53273929963798   13.15397447240831
N         4.20286962190975   13.51361830214254   15.08740147624477
H         4.14355649929288   14.51532539313858   15.04689625785070
H         3.61273331454429   12.93828319378341   15.68942483873533
N         6.14428198333125    8.31112406397199   14.30947139906959
N         8.32985445613708    6.92711693402491   15.31436385955717
N         9.12719631628874    6.66687818642420   13.15858131811234
H         9.83801970807745    6.04853692243548   13.50631268963997
H         8.89562717569456    6.75970294917366   12.16890989392159
O         3.64471042799201    9.40591606207514   14.58955135804498
O         3.27877737540561   11.16273108826148   15.89235070883839
O         5.59768751699904    8.37763397252085   11.72718533795354
O         7.59564895332629    7.57598835595376   11.19504534543077
O         3.84027841983172    7.18557885807595   13.24822917750327
O         3.18261298553857    9.29909643404424   12.02090026187038
C         3.78789981369348   10.61480226379545   14.90513125274208
C         4.67083893835671   11.43321351354194   13.98744410863599
C         4.77533262591349   12.85050481520633   14.07019803557282
C         6.08021555012776   12.82446479494811   12.21259983153950
H         6.63366823805814   13.39838086938899   11.47975117053920
C         6.02321932519887   11.44098303203912   12.15784592420700
H         6.53266280643827   10.86527233330302   11.39753380141498
C         6.73195445061778    7.91693922655392   12.01470029539160
C         7.03632192119403    7.79531022843671   13.49258084616792
C         8.17694796429185    7.10914197411766   13.99725612090132
C         7.40050183648888    7.44684690860151   16.10372277705991
H         7.54282330250131    7.28231043297966   17.16458590704288
C         6.31475623368901    8.15882507833072   15.61947727447910
H         5.56645280374941    8.59446124523549   16.26701816354321

