27
CSD_code = IDATEP | q = -1 | S = 0 | Stoichiometry = C10H6N4O6V(1-) | MND = 6
V         4.14465730909099    6.07347184805332    8.66594925008657
N         6.24343895924345    4.81518372021396    8.77268885710739
N         7.70849448111028    3.16699601224348    7.09294642288162
N         5.20384063600088    7.15357059955548   10.55589255878961
N         4.56007320559258    8.67955495981283   12.77765307618926
O         5.40559777525903    7.16958792952529    7.84055325496935
O         7.30031004242038    7.39224617196743    6.69806338099993
O         3.85735401638751    4.91124400593794   10.09390567620352
O         3.69988886851941    4.53470493204675   12.27988428713879
O         3.79427203915433    5.12653562072042    7.50587916610086
O         3.02177471187588    7.09956325348774    8.89353595054452
C         6.49113890656220    6.74347353047411    7.34600723817229
C         6.78116054230119    5.27876133837058    7.65028238207580
C         7.52647726734731    4.44773196248730    6.81502420417039
H         7.97427954738697    4.82918608630646    5.90795945692782
C         7.14429180310993    2.71019806050030    8.20202102530109
H         7.28994487290631    1.65896431664116    8.41378944250946
C         6.41347806885009    3.53275875788461    9.05144748265184
H         5.95819822199342    3.16563810597229    9.96271847044242
C         3.95016250752617    5.24062542560775   11.31313947254593
C         4.45711557901605    6.66029454189053   11.53637383271302
C         4.14668438210841    7.42824841966501   12.65770746869996
H         3.55091219572434    7.02073638851242   13.46263929539578
C         5.28114308093251    9.16909515883705   11.77878941257515
H         5.60215253393960   10.19749755608121   11.88158103149709
C         5.61427092350248    8.40676771160573   10.66511340763986
H         6.21078752213958    8.79816358559535    9.85065449566992

