55
CSD_code = IDAVUG | q = 0 | S = 0 | Stoichiometry = C22H18CdN12O2 | MND = 6
Cd       -0.00100480787794    5.68354712462489    0.00036526257849
N        -0.17863662536231    6.70697318384552    2.02112455435724
N        -0.28678079115715    7.40952869070512    4.69705950308381
N         1.23753321584363    4.52490174192467    1.17511894545909
N         2.04710995102114    3.48788783039634    1.03130096030806
N         2.06543395304250    4.08453085144516    3.18755711425057
N         4.78972560755119    0.34161962197473    1.73972752628563
O        -2.26953708829566    4.65295657889823    0.66037319221814
H        -2.86826346208624    5.38901210620749    0.48386785971145
H        -2.70618264874996    3.85367177134572    0.34820582168911
C        -0.90198800953686    7.74309697321975    2.42884063880626
H        -1.43594229703432    8.28908807693294    1.66012952192691
C        -0.95290584634737    8.09199639702563    3.77165431941237
H        -1.53380592455449    8.93262479314219    4.12246324551297
C         0.42464425814227    6.37816778663217    4.29867414082464
H         0.96478570192090    5.81984473048780    5.04936620381213
C         0.49091896722329    6.00091895295092    2.94773547565136
C         1.25850322812226    4.87753952526504    2.47964654792295
C         2.53511958120626    3.23428396624106    2.25716514764893
C         3.47070253545900    2.16805671678547    2.54210044827178
C         3.93909944340108    1.94997301909297    3.83714740344985
H         3.59482547059142    2.58720744792496    4.63766704849080
C         4.83378409438660    0.91864705193039    4.05571734666411
H         5.21929094529246    0.71707923735391    5.04365301661735
C         5.22765033244133    0.14442577513579    2.97332051431582
H         5.92648788132707   -0.67334681892125    3.09384869785621
C         3.93558096639258    1.32437891069646    1.53162325201114
H         3.59522986688719    1.45863769617125    0.51374211194209
N         0.17477169346635    4.65843221693547   -2.01952824603337
N         0.28072899324115    3.95372028783736   -4.69497983433936
N        -1.23838142448911    6.84295786424407   -1.17452216807115
N        -2.04600288894807    7.88153472527807   -1.03130998826253
N        -2.06633305158204    7.28300709654194   -3.18702062811562
N        -4.78244371626875   11.03268384664167   -1.74122790138256
O         2.26711190361949    6.71165485456647   -0.66401375725981
H         2.86379809582783    5.97309432470601   -0.49099657349088
H         2.70493022490551    7.50784655892208   -0.34545787339336
C         0.89716791146346    3.62150480762189   -2.42691165598373
H         1.43116726902875    3.07567021907997   -1.65811130604722
C         0.94712089716827    3.27160997894007   -3.76949307028244
H         1.52730014222333    2.43036767952980   -4.12002463797199
C        -0.42971068844911    4.98588656219538   -4.29694585818808
H        -0.96995729188692    5.54398946376249   -5.04772746839224
C        -0.49471507248673    5.36436845841046   -2.94627679926284
C        -1.26053544952588    6.48916682937748   -2.47873594662546
C        -2.53401648375687    8.13498463075640   -2.25720881528212
C        -3.46741178437971    9.20297455720080   -2.54270657239548
C        -3.93534336891234    9.42142962555805   -3.83785813310321
H        -3.59245352027577    8.78306672218709   -4.63807322031384
C        -4.82776625606049   10.45461178183534   -4.05693566660050
H        -5.21275830983138   10.65660174858763   -5.04498477781802
C        -5.21992675753283   11.23023400411112   -2.97492573588086
H        -5.91682006644680   12.04960010585322   -3.09589074549784
C        -3.93043257671481   10.04817600826637   -1.53264355858513
H        -3.59046692263664    9.91357530162072   -0.51468488249051

