56
CSD_code = IDAVEO | q = 0 | S = 0 | Stoichiometry = C23H27Cl3O2Zr | MND = 10
Zr       11.43720590211487    2.11307934248082    0.21100507304338
Cl       11.91188240322333    0.71646032815164    2.04378518266646
Cl        9.17137197087727    2.38477983122931    0.89221871350865
Cl       13.71040877496671    2.91955738174407    0.06497760318145
O        11.06977612072106    4.09449356856616   -0.73048466248466
O        11.63457924294837    3.66897673566669    2.03742167946272
C        10.15405185750752    0.90435915844853   -1.64292853844137
C         8.74950378313033    0.89274953596898   -1.75216380435458
C         8.03288640365452   -0.04411913226976   -1.05120908075557
C         8.66386966540142   -0.98267130430518   -0.21727887808468
C        10.02991982708272   -1.02227533953139   -0.09745019271946
C        10.80286867853596   -0.09908471277903   -0.82679720456641
C        12.21312402049982    0.05844718137090   -0.98501780962961
C        12.42407906672291    1.11094229097390   -1.89433868022183
C        11.18610727377923    1.69791827369255   -2.24617534122967
C        10.97088377270454    2.79067116464702   -3.27565452049856
C         9.84207838870829    3.68884507507856   -2.78453288521310
C         8.70643141031916    3.95152086500085   -3.54465215136642
C         7.67049912187316    4.73082258922672   -3.06132536796840
C         7.74131865378393    5.26733925189269   -1.78926985779239
C         8.86878411033104    5.04483701343114   -1.02171997652063
C         9.91144229190848    4.27125702679364   -1.51273660878440
C        12.24485061817526    3.63821275811662   -3.46195721630032
C        10.64540279324239    2.11137769132232   -4.61615482991394
C        11.67223132898762    5.34575691755539   -0.36288330352392
C        10.56178699059210    4.19021092199858    2.82993766276820
C        11.18468473655464    5.27050706795212    3.73050533581623
C        12.68443656798811    4.93896638519252    3.70327131904307
C        12.72258430247495    3.59656125041123    2.97134144190065
H         8.23797350888864    1.61263849873821   -2.37591694963378
H         6.95619926668860   -0.05908534606573   -1.13147840997570
H         8.05496160116296   -1.68713254708222    0.32947809316161
H        10.51671112297582   -1.75933851670455    0.52812355509469
H        12.97464909111215   -0.60317944165883   -0.58873308830205
H        13.39000885831762    1.39146909593234   -2.29460064683768
H         8.61954936142089    3.53619610577230   -4.53481157332869
H         6.80279439824167    4.90779033338405   -3.67820337197293
H         6.92892886144263    5.85667850173138   -1.39445193101058
H         8.93113935576169    5.45452114211205   -0.02555652310874
H        12.00371005068275    4.55771684903961   -3.99320081974388
H        12.71016691390295    3.88717785793104   -2.50914185597824
H        12.97038688178510    3.08800085678697   -4.05617357284534
H        11.45275998631063    1.42610458926949   -4.86495249277237
H         9.72878725984540    1.53160375982444   -4.54555129568931
H        10.55776735179314    2.84079174955131   -5.41857444360552
H        11.71162213458990    6.00605863913516   -1.23473792342365
H        11.11982602980712    5.83967999474385    0.44073258382177
H        12.68715314533509    5.11426943564651   -0.02913290106496
H        10.13618302668495    3.37702520378482    3.43281586946511
H         9.78633085989286    4.56926406770599    2.16327049509954
H        10.99465213519770    6.26968719354128    3.34069519093974
H        10.77279554273453    5.21621695787837    4.73562815677753
H        13.23785846223944    5.68953365078337    3.13945257542983
H        13.11668887718415    4.86459009676405    4.69761245004004
H        13.64720159315636    3.42699264868921    2.41955706573257
H        12.54804424403320    2.76532950474066    3.66691866270764

