51
CSD_code = IDAVER | q = 0 | S = 0 | Stoichiometry = C24H16N6O4Zn | MND = 6
Zn        2.35205894650439    2.33017091345626    1.70306417437666
N         3.34035759534471    1.74749014910156    3.50320728472795
N         5.53083812318249   -1.85014196135873    5.70958961806724
N         4.23209867939608    2.83239427823786    0.82301626876111
N         7.46116819695380    6.28778431767918    0.33226437706500
N         0.50522573663086    1.61409610485340    2.47431197057778
N         1.34262828690269    3.12500921091365    0.01140839682931
O         2.26988150955856    4.04804507809442    2.69503601921897
O         2.81269321087784    5.05163981913652    4.60571531668098
O         2.77653639806224    0.60240338795099    0.82152769700213
O         4.29253086905050   -0.46887585074076   -0.40589026766503
C         2.78198190637715    4.09612772496094    3.85102912093838
C         3.42774982999484    2.78450819694258    4.32991148249503
C         4.06412466671210    2.70585130531759    5.56433790585273
H         4.09683634022065    3.58922669022393    6.18285043602269
C         4.62734288763390    1.50617742918143    5.94834847403593
H         5.13397094621906    1.39566648355332    6.89621550925207
C         4.52865298511990    0.41826674314774    5.07380110377794
C         3.87092900278572    0.59057312617653    3.85463384222760
H         3.77494086941457   -0.22269920895006    3.14819458379574
C         5.08202089847674   -0.83762748780008    5.41717392080449
C         3.86930930181219    0.50462727200742    0.19139403393101
C         4.73659211088976    1.77519627341478    0.19509673282988
C         5.97774057382275    1.79949249932051   -0.43252683376881
H         6.32436122506359    0.90217565167010   -0.92105371450960
C         6.71477007069593    2.96564186208925   -0.40648505083792
H         7.68423032321054    3.03384478964555   -0.87849650954481
C         6.17467473306024    4.07585564397666    0.25223381128437
C         4.92193775379307    3.95771093318089    0.85665401764861
H         4.47020013592217    4.78909712082236    1.38047350094612
C         6.88128901353925    5.30034997062218    0.30294377442334
C         0.99619854332638    2.35588311552126   -1.01458981147723
H         1.21833133694640    1.30377905637461   -0.91174325352154
C         0.39458751410878    2.85641717569579   -2.15704896496364
H         0.13364674639371    2.19322050232305   -2.96660502353092
C         0.14104973318685    4.21687506645919   -2.23542104062100
H        -0.32418504804495    4.64218012596395   -3.11241710893605
C         0.49846948117095    5.01760746876346   -1.16223837485089
H         0.31939880603283    6.08113450032625   -1.17748813119741
C         1.09623347118845    4.42853080997313   -0.06029256457822
H         1.39006826019893    5.00492666493375    0.80388881289497
C         0.18798005678674    0.33059682208160    2.34407595776108
H         0.89704066565366   -0.26958754015040    1.79427290777908
C        -0.97324324752460   -0.21051373511972    2.87071490502154
H        -1.18942579351770   -1.25926658590600    2.74129465838685
C        -1.84173382528297    0.61836610023274    3.56301123490355
H        -2.75481962711823    0.23029075893894    3.98979670126292
C        -1.51117321377009    1.95790805181135    3.69469972419451
H        -2.15563564404838    2.64156235804752    4.22437729244275
C        -0.32882336343724    2.41046236363259    3.13343980189810
H        -0.02843797948243    3.44484845326059    3.21499127988798

