59
CSD_code = IDAWER | q = 0 | S = 0 | Stoichiometry = C19H34Cl2Si3Ti | MND = 12
Ti        8.02660530411956    4.34606284726435    5.36784323326938
Cl        5.89524827397923    4.40549923073279    6.06451275785884
Cl        8.54139742664541    2.92621258664651    7.01802506082696
Si       11.73571570385142    5.00208284582781    5.93251866937986
Si        6.78307700851633    7.77209398200574    4.31305295898026
Si        6.18797770143389    1.14667790609521    4.66409502442230
C         9.26675844093888    6.21647711853067    4.81094086201393
H         9.70703346477014    6.43263873879424    3.84751056317522
C         9.94627520974695    5.59241930123281    5.88495997325423
C         9.10664068429681    5.74199401273805    7.02533234589461
H         9.37029015351186    5.45552280586132    8.03552793640688
C         7.93086733617940    6.38589652732274    6.63993497543282
H         7.12783980336527    6.68724399826354    7.30103208165532
C         7.99666558342171    6.67011287832072    5.24399021753992
C         6.97850405112427    3.67875140915730    3.38031790407355
H         5.96193712196917    3.92413274687905    3.10876204167647
C         8.13139059571088    4.35487209258695    2.95542735958492
H         8.15640721779809    5.20714648236285    2.28899531129653
C         9.25436395421636    3.62926665781014    3.41941293112602
H        10.28674643821897    3.83739086365787    3.17250287944358
C         8.78321887973045    2.50386949094815    4.11497942026775
H         9.39201917919558    1.70046592357968    4.50799752229087
C         7.36362078417501    2.52337837971132    4.11298849248230
C         6.83223360555612   -0.44009933324716    3.80797587799614
H         6.92521384543014   -0.30942139207920    2.73437736809368
H         6.14963865445492   -1.26476099927539    3.98133073709254
H         7.80457046130089   -0.73500821166934    4.18976341066735
C         6.07253222961136    0.83259093342982    6.54061064610072
H         5.33065035365112    0.06769620814648    6.75182882838238
H         5.78246236284273    1.73404384559408    7.07374152829665
H         7.02057762202742    0.49914376415915    6.95224426534784
C         4.45586813321937    1.59052284661692    3.98828803884545
H         4.46020521540003    1.71407118645548    2.90938222661917
H         4.08781743422314    2.51040633371755    4.43283641114884
H         3.74442657404310    0.80564357763203    4.22312660563689
C        12.65102015413233    5.79500547892416    4.45019498783001
H        12.57503300468357    6.87779021478518    4.46935519369238
H        12.26613392907683    5.45541956373955    3.49299287459938
H        13.70554780468764    5.54181165671053    4.48094599437758
C        11.91782076182676    3.10063498797317    5.85826126605961
H        11.86325553492107    2.71853508748943    4.84252706440433
H        11.13827998336860    2.61532876031909    6.44069315799498
H        12.87520208544597    2.79257438402990    6.26849050621138
C        12.50109099501217    5.63678885286748    7.56323317727652
H        13.57304628535719    5.46724198565210    7.57734810554240
H        12.07796952834910    5.12247642497203    8.42063421770885
H        12.33413876852660    6.70101397139400    7.70042805992354
C         7.78951267522057    8.75400401923066    3.01498559725353
H         8.20601252995662    8.11065722426425    2.24544948287043
H         8.61197124961684    9.29452463411154    3.47303043037428
H         7.15596598670299    9.48141125699841    2.51872016613554
C         5.37756705003966    6.82551575348301    3.42898183838403
H         4.95417320998710    6.06526167221661    4.08065431675519
H         5.71708424144230    6.34142205426286    2.51735285196565
H         4.57677585844621    7.50607967732671    3.15452425308290
C         6.00918503970588    8.96983976129284    5.58266490586279
H         5.41642783371371    9.73048696439301    5.08464005921595
H         6.76568554617880    9.47674744472938    6.17429289585001
H         5.35250313494384    8.44029058302484    6.26633213005587

