55
CSD_code = IDAXES | q = 0 | S = 0 | Stoichiometry = C22H16CdN8O6S2 | MND = 6
C        -1.02377657678543   -1.55134865096923    1.58825665627418
C        -1.18961301222268   -2.74855491682609    0.93868449395106
H        -2.19328951070284   -3.05753359130120    0.69267078970586
C        -0.09307235338291   -3.55839263021035    0.60146311907656
H        -0.27285838750164   -4.48974210115561    0.08577001610924
C         1.19973574715969   -3.20792128706803    0.92544649185059
H         2.03788684306855   -3.84345998047064    0.68426927442281
C         1.37241834653286   -1.99623502996532    1.58661339066448
C         0.27213037350345   -1.16211466179392    1.90848049938794
C         1.63872966715239    2.34543794267043    4.51771189797443
H         2.11374871032681    1.39698830673482    4.31063208263544
C         2.35838864528336    3.41688629009558    5.02850218973271
H         3.41059633712914    3.31379436401236    5.24113707526292
C         1.69641776358684    4.60970560318013    5.26944121009396
H         2.21914448621662    5.46117735409911    5.68056314805100
C         0.34578219957574    4.68972850635482    4.97794817112613
H        -0.20704921545401    5.59618133056714    5.17119983841019
C        -0.29765138145000    3.56296195925388    4.46854660294723
Cd       -1.01885855271942    0.58062627466656    4.31226406469260
N         0.76106908312214   -0.05395459821615    2.53155148023728
N         2.02201273893312   -0.15156844537104    2.61172639855904
N         2.43782959810853   -1.29767549820507    2.05944430376268
H         3.41240794364889   -1.55218679617346    2.07442333945660
N         0.34622014723030    2.41822020373850    4.24859600177663
O        -2.38043849456257   -1.03720698095011    3.67379392104913
O        -1.94001613971682    0.82164997117558    2.19764024365771
O        -3.57083161501973   -0.88762309043764    1.54698568386169
S        -2.36587330438841   -0.57858216246326    2.27248516859110
C        -1.01338372284723   -1.55029288896680    7.03522677211985
C        -0.84702384272027   -2.74768951240859    7.68432335461666
H         0.15670518756081   -3.05584088173666    7.93117442894028
C        -1.94311749447895   -3.55868648475201    8.02017679900498
H        -1.76291889951182   -4.49016452811607    8.53549847704798
C        -3.23596930520708   -3.20920094310467    7.69532453743436
H        -4.07373518516194   -3.84566820380086    7.93540327469028
C        -3.40919919103982   -1.99731900606343    7.03465562884485
C        -2.30938509639320   -1.16209138671899    6.71413847080099
C        -3.67604146919561    2.34708083769526    4.10647728761197
H        -4.15175045300383    1.39930482689133    4.31504409282258
C        -4.39511026826050    3.41849958377626    3.59475465062303
H        -5.44749460448017    3.31598082041431    3.38269889430972
C        -3.73233608211648    4.61054317479787    3.35215611352126
H        -4.25452933924584    5.46186102292092    2.94008206130202
C        -2.38153976780999    4.68990164681353    3.64309800625989
H        -1.82808651033679    5.59569792918003    3.44855923608224
C        -1.73877936727347    3.56326159657012    4.15364044546847
N        -2.79881754570176   -0.05397453661881    6.09131719326313
N        -4.05959399330417   -0.15276996084100    6.00987482177038
N        -4.47485991182980   -1.29947030764282    6.56133342547878
H        -5.44919019742535   -1.55486707825270    6.54534608586722
N        -2.38339035786470    2.41921330682672    4.37505758867595
O         0.34600887218407   -1.03369799050271    4.95179589860438
O        -0.09939919915898    0.82400926332283    6.42790058099199
O         1.53274737255324   -0.88329078367317    7.08051350123944
S         0.32850028535427   -0.57558720102804    6.35328081930552

