69
CSD_code = IDAXAM | q = 0 | S = 0 | Stoichiometry = C25H36FeN2O3Si2 | MND = 9
Fe        1.84929419094439    1.56461349319895    3.81475516101179
Si        2.27019730049808    0.82085616631528    1.76039558250990
Si        2.04209257772800   -0.17822643237716    5.17949633541560
O         3.73440717835638    1.44326131966117    1.20568506186390
O         0.73655136580532    0.17096846831024    6.17979103625373
O        -0.54675066931552    0.10427809197115    3.20444678193595
N         4.95489378180573    0.19844096861363    2.66216227604852
N         1.32030206202263   -1.36688093053055    7.75063397932152
C         1.10980852174409    1.58039215697684    0.44714893363997
C         2.31518721967246   -1.05148506397370    1.38380349359444
C         3.69640366166614   -0.19580844232459    6.14723811192172
C         1.77356442857300   -1.98882979714630    4.62325716968914
C         4.90165669811576    1.15669209682318    1.74925140059566
C         6.03886361179836    1.87911228384356    1.35955677078080
C         7.24328977731586    1.58859795132687    1.96341264003573
C         7.29006702842346    0.59584987039108    2.93599847341840
C         6.11643255116588   -0.06819433074227    3.23733916900630
C         0.43687429930228   -0.49837526255808    7.28272724491629
C        -0.78822784761651   -0.26340877486765    7.92129586268229
C        -1.07367942655621   -0.96107162637475    9.07545251034929
C        -0.14247240430348   -1.86900193608732    9.56625453290885
C         1.03388757028550   -2.03034939228338    8.85905566114253
C         0.46023910787770    0.61433363007227    3.44708167419486
C         0.87261899767467    3.37058961211847    3.56243216452483
C         0.80789642325291    2.95649298562689    4.92736733553560
C         2.12760915030502    2.89190817519711    5.43863073347049
C         3.00728428290901    3.19494419301828    4.36145100443223
C         2.23343602265531    3.57364594309152    3.22616450269881
C        -0.33758351364232    3.69224835161546    2.75098203200267
C        -0.46643070045203    2.82115494014907    5.68945522884272
C         2.50942046174072    2.77717266485016    6.87607008961951
C         4.49010057949646    3.33744375871881    4.45299683993352
C         2.78185940167757    4.27739307123975    2.02863535206473
H         3.05705744808531    0.83950972445493    3.64828549303370
H         1.30701357328562    2.62842616843899    0.26646666811615
H         1.20734389625651    1.06511596099061   -0.50236271881909
H         0.08276051353107    1.47763544877568    0.77158050615770
H         2.49095050543411   -1.22770662229587    0.32657475960755
H         1.38116392807212   -1.52962489068882    1.64829799432245
H         3.11248667316531   -1.53194195681701    1.93564992860676
H         3.56223983886375    0.06092319335451    7.19038307067745
H         4.40571379465881    0.49123525844774    5.70253177620294
H         4.13610389409780   -1.18570273887242    6.11460489853929
H         0.85587054678368   -2.10446286201933    4.05823097648054
H         2.59150930125325   -2.34138921954356    4.00925598143128
H         1.70804052841352   -2.63032229893663    5.49646747361758
H         5.94804809279346    2.64043616456230    0.60102775828505
H         8.13714127511346    2.12862149041479    1.68570925563449
H         8.21294374320162    0.34512741858326    3.43399947132331
H         6.08737307136510   -0.85839655675678    3.97578030536907
H        -1.48111654835330    0.44347880296986    7.49505747782537
H        -2.01116676561938   -0.80424737738110    9.58965167508542
H        -0.33091241341732   -2.43255478252707   10.46595568739213
H         1.79679110275901   -2.72489102445068    9.18678297331100
H        -0.08632698858639    3.86692828487609    1.71051006276472
H        -0.82859844037791    4.58418143629335    3.14433027501528
H        -1.04757346026084    2.87044832465118    2.79894072048811
H        -0.27627250638096    2.48131521193439    6.70146963959654
H        -1.12181692862399    2.10464972876961    5.20082628519519
H        -0.98290167294749    3.78160980156086    5.73285772370350
H         1.90758613839824    2.03264553220515    7.38771006548303
H         2.35311314914229    3.73964562451551    7.36915804282970
H         3.55597100986164    2.51118562591037    6.98038686920134
H         4.76207285469662    4.33204474431292    4.81192987622226
H         4.94343657892931    3.18783627236648    3.47677385622484
H         4.90856517049924    2.60170567655389    5.13501713850051
H         3.35606330207695    5.14770965665652    2.35041679087328
H         3.43779549542615    3.63283693011400    1.45262915747818
H         1.98043660747268    4.62122964471946    1.38058693785186

