47
CSD_code = IDAYUJ | q = 0 | S = 0 | Stoichiometry = C18H22Cl2N4Zn | MND = 4
Zn        1.13105200253234    5.01110569494417    2.33715356811660
Cl       -0.22838116019391    5.06111672632478    4.09987077597884
Cl        1.63156930954848    3.35431639453927    0.99085831671509
N         0.43440738735089    6.75413461865975    1.34153844598947
N         0.25145146060249    7.90951677653102    2.00357950513061
N         3.81497415664156    6.61604678925037    2.91139209570703
N         3.00294115841515    5.57613132953724    3.16912751384782
C        -0.35315291775837    5.70679779620784   -0.75240156108295
H        -1.16903077392338    5.03246410983929   -0.48955801614193
H         0.56776515361090    5.12830375608605   -0.74079546623073
H        -0.53588166537650    6.09497869556566   -1.75198711885088
C        -0.28902095927023    6.81839155858660    0.22610821330293
C        -0.94181796746704    8.05354476836938    0.17259480641133
H        -1.59749201244601    8.40249051637217   -0.59814932740423
C        -0.57986399710998    8.72377891307283    1.32456990077965
C        -0.98369198384415   10.06695946810022    1.80557472217337
H        -0.12951204855984   10.74315211103995    1.83125376385933
H        -1.40201135803224   10.00490833615810    2.80946997867666
H        -1.73670705303477   10.47818561814515    1.13950606356575
C         0.89898198205402    8.18272296396891    3.26295862647460
H         1.26683402446894    7.23561188185492    3.65765922120892
H         0.14573009426547    8.55444818620047    3.96317497650546
C         2.00335956118695    9.20354748316453    3.11908332899429
C         1.81841719343349   10.46535648369015    3.67417642356587
H         0.92135361834033   10.66300297753203    4.24236411172666
C         2.75908980842953   11.46757442195420    3.52292904306841
H         2.59204195264566   12.43706560144281    3.96662351691332
C         3.90439677771222   11.22113106497327    2.78796239653546
H         4.63749858728439   11.99901257340479    2.63936800007313
C         4.11129322389834    9.96330884055489    2.25204513428989
H         5.01016578205823    9.77297428272996    1.68373315698475
C         3.18554345362312    8.93929282159688    2.42143118209111
C         3.51588982309032    7.56962648195380    1.87050386223867
H         2.68822546443941    7.15876868784035    1.29036004166854
H         4.38698828370301    7.64873898819666    1.21164372393540
C         6.00311494807068    7.57503703900584    3.64005220244526
H         5.64404971653269    8.55879390483538    3.94078643692935
H         6.40503208815094    7.65109838383169    2.63010589875763
H         6.80322196767170    7.27414404322275    4.31020228945929
C         4.91087144168854    6.57346671980613    3.69809566186130
C         4.78433603147128    5.45385790973103    4.49471833028609
H         5.47406028185926    5.11015245943899    5.23756803768135
C         3.57516357420211    4.85407768830634    4.12696634151925
C         2.96222823331595    3.61597186553806    4.66047399752130
H         2.74868005978683    2.92456649877727    3.84584436823451
H         2.01952757905669    3.84718074794094    5.15545190034716
H         3.63270771587754    3.13984502117406    5.37051160813751

