75
CSD_code = IDEHOO | q = 0 | S = 0 | Stoichiometry = C33H35ClO2P2RuSi | MND = 6
Ru        7.55441046895089    4.96487968975634    4.23809172702126
Cl        5.17379461147628    5.07042753204838    4.85868884132841
P         8.36442591505808    5.89646264989499    6.18159507489567
P         6.58090190009346    3.98096738572371    2.39584684921294
Si        9.73558119642253    4.53664272767326    3.37936481309915
O         7.43044918190938    2.29144174385582    5.62102597034562
O         8.01573005307582    7.69251155235660    3.05411001507632
C         7.49568801724523    3.29480841730667    5.07685350060963
C         7.75160083325922    6.65272441078791    3.46982567988515
C        10.03904182207148    6.65833116141272    6.13936792436152
C        11.15568810768937    5.78317115468362    5.56656734374767
C        11.12900285173037    5.69891505426806    4.04626226182922
C        10.43034906209116    2.77217409280444    3.76610484139564
C         9.91672908490503    4.71850158150892    1.45216413579323
C         8.59598556271957    4.76052146098566    0.69434350082292
C         7.71611054161028    3.54880584284834    1.00934814373206
C         8.35245293537760    4.77844169005709    7.61529159604241
C         7.08909533104501    4.29672625965814    7.96035339120185
C         6.94007506363271    3.43414124324646    9.02760799019659
C         8.05129966621719    3.04210258044231    9.75866814679019
C         9.30584400285253    3.51958320144308    9.42151779906775
C         9.46215723152708    4.38767748417385    8.35333640067476
C         7.42861829480373    7.29192758020649    6.89619277384172
C         7.72465204348111    7.71930136580465    8.18958207210672
C         7.04700252607615    8.79058517995699    8.73787187013208
C         6.06666575495562    9.44198340325504    8.00504658556518
C         5.75996979630234    9.01288929042363    6.72577855099383
C         6.43753978963325    7.94050964486241    6.17175129557790
C         5.28941160508362    4.88154408927052    1.48018114877730
C         5.00523496543378    6.21415047157481    1.74199545967638
C         4.03761534356226    6.87873163271311    1.00842204483020
C         3.34559560838063    6.21446380828123    0.01116474275158
C         3.61814405007141    4.88022510389493   -0.24994764776813
C         4.58473541156891    4.21526578483444    0.47861242911600
C         5.74485991413199    2.41026911432175    2.77188305755324
C         4.38763249376815    2.39861960824583    3.08351386885439
C         3.77426070584868    1.21960038944459    3.46531817145058
C         4.50568653049109    0.04620011983405    3.54377028789461
C         5.85909396788870    0.05454583679793    3.24831603786864
C         6.47895134101577    1.23124282465097    2.87144799215017
H         3.82113824798563    3.31819861999685    3.04294139519432
H         2.72236614432055    1.21973645568887    3.71067552456037
H         4.02491785020450   -0.87287605845179    3.84512724208449
H         6.43585477471954   -0.85607518502632    3.32147853122393
H         7.54127773839955    1.23506048489148    2.66702613069085
H         5.52469908041431    6.72594910549223    2.54055364769493
H         3.82054342053176    7.91517340589458    1.22082921926238
H         2.58756998182760    6.73132199243258   -0.55871525795803
H         3.07169715796831    4.35694329792926   -1.02123285962403
H         4.78555193191467    3.16929046555568    0.28437634726540
H         8.47705917111382    7.20055926805234    8.76925930525313
H         7.27884249431898    9.11635708703689    9.74156666888681
H         5.53604759903574   10.27716219136931    8.43809736500108
H         4.98603937743599    9.50861426245888    6.15872246056233
H         6.17242242094560    7.58649373632333    5.18494316548876
H         6.22823298381929    4.60690020615692    7.37779222368370
H         5.95986596822794    3.06359666517549    9.28856695383430
H         7.93867008712772    2.36320533285809   10.59111571069199
H        10.17142006922450    3.21505286291132    9.99225683964405
H        10.44682873441800    4.75480382871039    8.10461227925981
H        11.43004143808924    2.65810653373365    3.35844695613787
H        10.48668161360321    2.59582181951608    4.83629173791416
H         9.81020415384670    1.98661044011655    3.34531672018206
H        10.27667925097375    6.96844740092125    7.16344347243451
H         9.93796510495992    7.56850954112099    5.53489929856685
H        12.11048558198935    6.20994383544474    5.89179993569393
H        11.09014470451305    4.77271858010836    5.97551342012792
H        11.03738026073374    6.70422629060966    3.63488137039790
H        12.08745055441272    5.30895217272969    3.70555111232636
H        10.50600845655248    3.88375457729321    1.07309336792569
H        10.47555032815981    5.62475681578634    1.22140185762609
H         8.79207215357083    4.79893417388962   -0.38110298159849
H         8.05098025247063    5.67774161270767    0.95293920785670
H         7.11123858444135    3.25877774308877    0.14517745145506
H         8.34418874424599    2.70221627218120    1.29001749175287

