43
CSD_code = IDELUZ | q = 0 | S = 0 | Stoichiometry = C18H18N2NiO4 | MND = 4
Ni       16.83559901524277    0.83990203024810    0.25901207682368
O        17.75602790050280    0.65709053267940   -4.07722330684050
H        17.10929368211208    0.34218028385888   -3.42028515813009
O        17.46082063750813    0.82896420310744   -1.47497645615096
O        15.44692697833052   -0.23343472389859   -0.33761771645009
O        13.85113275850550   -1.83478600460203   -1.66992685630961
H        14.63736359381789   -1.29602463140826   -1.87171703909969
N        18.29524032880687    1.81906450205183    0.89632935967367
N        16.14314167599810    0.92958663014551    1.96575480835303
C        18.68309902272170    1.35229160296803   -3.37475669250208
C        18.49273981412360    1.43823974916701   -1.95884147084678
C        19.44454841496018    2.16114529170513   -1.19930539758683
C        20.54570204892228    2.76001404042350   -1.85338586912272
H        21.26520170131959    3.30572625845874   -1.26032198616771
C        20.69519442069972    2.65818855359454   -3.20685121963050
H        21.53615769633240    3.12058526371182   -3.69974627019275
C        19.75899710791702    1.95169694591734   -3.97563440258485
H        19.87434504621339    1.86964335289760   -5.04474122323938
C        19.29598285191435    2.26525167279455    0.20477709890070
H        20.11196901052498    2.76878206190000    0.71934500220105
C        18.33301115813209    1.91581576293909    2.36429045483060
C        16.86214541826355    1.86336089937343    2.81375001148570
H        16.78601256276347    1.57817570607090    3.87024693566215
H        16.41685980283790    2.85950578169364    2.69083904542846
C        15.11164985321976    0.31867525342114    2.45431189956821
H        14.85720580859960    0.48871798436683    3.50251680172872
C        14.26231150549655   -0.55562677912700    1.73437603065063
C        14.49426375591483   -0.77036781986579    0.35326500041929
C        13.60752539868483   -1.64554633550920   -0.35030116059570
C        12.56621045115461   -2.25819975559301    0.29704963790094
H        11.91670440924950   -2.91387015057019   -0.26088942178590
C        12.35211623035758   -2.03273516225528    1.66429571184541
H        11.52569385147165   -2.52424182130601    2.15355431373973
C        13.17716471710002   -1.20225688485548    2.36785042918163
H        13.01421711714624   -1.02618087596406    3.42109795155553
C        18.97682171522742    3.20281664664846    2.89038391984201
H        20.06109190202712    3.16662895685692    2.82886376172997
H        18.71028806773863    3.33029085647268    3.93683515275599
H        18.61679325785214    4.06562506370738    2.33396499430907
C        19.07992588801829    0.68366444844265    2.89354716339644
H        18.57852394852859   -0.22316265354818    2.55430048502464
H        19.10494555644912    0.69225404056133    3.98040348666972
H        20.10063391729287    0.67164922231925    2.51806011355894

