88
CSD_code = IDELIN | q = 0 | S = 0 | Stoichiometry = C36H42N4O3P2Ru | MND = 5
Ru        0.41936267455362    3.28898251754579    3.40994134463314
P        -1.38693768212043    4.17181991101709    4.60025258782219
P         1.24122744123122    4.08184311725832    5.56138654909071
O         2.86861327543443    2.49158267032664    1.85577496452496
O        -0.00132880743347    5.78921747816990    1.76356962265775
O        -0.51910541906866    0.42263741498417    3.08782164339705
N        -3.28328907017410    5.39926469811937    6.69279426691288
N        -3.24807616787838    3.32062568210817    3.12210574848780
N         3.18679393471008    2.54383590480777    6.06482017580382
N         1.78651619704631    5.92426538954629    7.95526195536783
C         1.92289777673841    2.79061154858804    2.45001764052434
C         0.23596446374204    4.86518780790794    2.42238166871664
C        -0.16065339348269    1.50894537407350    3.28790303988211
C        -0.26505289151234    5.17470342720382    5.69491078075035
H        -0.62059979326355    5.40282483628312    6.69789285561600
H        -0.01721269433277    6.10353946136533    5.16501918227105
C        -2.33589732408995    3.30585764211411    5.89460480267150
C        -3.13511756682342    3.98131065053717    6.82018863023483
C        -3.74429931252981    3.26031099226355    7.84058840556336
H        -4.36314405069276    3.77558641172872    8.56215356238056
C        -3.56577579846298    1.89236130730779    7.94823929258599
H        -4.04466637463794    1.35090783493781    8.75120388585148
C        -2.77589211086734    1.22409649115990    7.02891215989224
H        -2.63065025622937    0.15727480741391    7.11058609519472
C        -2.16803919474814    1.93219135089866    6.00945686868281
H        -1.53823592978607    1.42719684564764    5.28969485160476
C        -4.60857436999312    5.77005261402982    6.23037065100226
H        -4.84537648402817    5.22784560544098    5.31797174568713
H        -4.61592198092924    6.83680611815790    6.00734065429626
H        -5.38978683224809    5.56237997901255    6.97742882454830
C        -2.96041215348463    6.12134725622164    7.91198970324535
H        -2.04431327951903    5.72687009433276    8.34870444770040
H        -3.75422201869855    6.06828280681818    8.67120167364558
H        -2.80485297325918    7.17091566737564    7.65837946942272
C        -2.51942479399092    5.40325079916959    3.89784304556924
C        -3.44330907008039    4.73987321363619    3.09499756600911
C        -4.38584284530708    5.44371476186616    2.36858784505005
H        -5.10794790356436    4.93419027053982    1.74639021598120
C        -4.38174837673944    6.82857710348492    2.44329344867787
H        -5.10805191955783    7.39504858399838    1.87903326723448
C        -3.44752799637841    7.49159953107220    3.22325921413497
H        -3.45199686861351    8.57171407235981    3.25514083772879
C        -2.50604199899352    6.78696896816081    3.95490039072014
H        -1.78325220112806    7.31207461052015    4.56105479793616
C        -2.86458368290234    2.82151503957729    1.80702358275784
H        -1.96558949194065    3.34605999242228    1.47686443396473
H        -3.65972807716761    2.96068704845841    1.06450889630523
H        -2.63695938285689    1.75969116948501    1.88343772496403
C        -4.41088886800326    2.59960648684758    3.61537162141456
H        -4.71071883157876    3.00023584588434    4.58272795744084
H        -4.14447515195384    1.55117406602587    3.74587619927488
H        -5.26321516436509    2.66243798919771    2.92644493039945
C         1.20668727872379    3.18505683274732    7.13991191341333
C         2.35154180966040    2.39323269383816    7.21784977918343
C         2.56902644767178    1.56078742168668    8.29921421020064
H         3.46181314344198    0.95525353617821    8.36723586650547
C         1.61038858643683    1.50520497586037    9.30066525409735
H         1.76443046992717    0.85938821057150   10.15271803866788
C         0.45211830807648    2.25948549427363    9.20616513346206
H        -0.29469482132255    2.18976048022397    9.98430290669569
C         0.23864653452088    3.10202508382247    8.12807570902075
H        -0.67162406917362    3.67734216319447    8.07009061484834
C         3.16211591385967    1.34178370117975    5.24451217179677
H         3.72970127994722    1.52281984020591    4.33300897096901
H         2.12722655248903    1.12228615631467    4.97319692225901
H         3.58906375429354    0.47416813119133    5.76301219488282
C         4.55160360713617    2.91948842822669    6.39090263579477
H         4.54425322406200    3.79710376925045    7.03603762818522
H         5.07665872747531    3.17368285177887    5.47063680345259
H         5.09937647240437    2.11273608028919    6.89486185891541
C         2.57303244553348    5.30843505779144    5.74981874304426
C         2.71433923256663    6.10956567854507    6.88033973957005
C         3.73404139396769    7.05317121878362    6.91539019476745
H         3.85572944669365    7.68052067248999    7.78772408706089
C         4.59568999849190    7.20098561493005    5.84263934538150
H         5.38255378305862    7.94011917476764    5.88622636009117
C         4.44685169476021    6.40889706167055    4.71578279700397
H         5.11478143647854    6.53053297698932    3.87587323722279
C         3.43686999115710    5.46698851506612    4.67317871246228
H         3.29266907627676    4.83910447670291    3.80114978910723
C         2.42619370190099    5.39403901866620    9.14482498933692
H         2.98884290175312    4.49967846510288    8.88470296203095
H         1.65489400664651    5.11642712168049    9.86362012718039
H         3.10687878379643    6.11415912085778    9.62308644462088
C         1.04578426364020    7.13477954623491    8.26158335811188
H         0.22968310630959    6.88157859383692    8.93981749125667
H         0.62895332382850    7.54532191982743    7.34378669285245
H         1.65933898558984    7.90978864798733    8.74393059035272

