119
CSD_code = IDENUA | q = 0 | S = 0 | Stoichiometry = C31H76LaN5Si6 | MND = 4
La        2.47759199983044    2.66983552462868   -5.02891520852576
Si        1.39183387828280    7.57898889463566   -3.56338573017469
Si        3.93248192050089    7.68297506241762   -5.46242995132697
Si        4.83454081506608    1.85897693847763   -7.59250853719201
Si        2.10441473334274    0.55761960045797   -7.78128152707794
Si        0.04731924052056    1.52074513023175   -2.67414716921852
Si        2.66344214738103   -0.00373651540400   -2.79946734335365
N         1.82743645629231    4.89910395751216   -5.64975138614768
N         3.28498912211679    4.67011294291949   -3.96970076696043
N         2.63427768225338    6.88539534411991   -4.59102831616591
N         3.24703710967996    1.57589041673394   -7.00242851152999
N         1.61271079703468    1.24863469440200   -3.32496435226047
C         1.15802753158068    5.64382545382197   -6.70004008945781
C         1.83909631325950    5.32965832121960   -8.04094297626064
C         1.11132792300897    5.97678631994095   -9.21551192551540
C        -0.34932125799120    5.54165863928771   -9.25329404264125
C        -1.03173238414563    5.89826533526535   -7.93708463756827
C        -0.31627552529370    5.22633271201203   -6.76947867587120
C         2.58229876026838    5.48666585543815   -4.73667741630213
C         3.99996724787940    5.13216038747386   -2.79452675177609
C         3.29464187680926    4.59122138185874   -1.54134394481180
C         4.06104246181180    4.92904986124360   -0.26596021935288
C         5.48866242026639    4.39871020600209   -0.33595864999718
C         6.19779814873444    4.97644819590526   -1.55601886456529
C         5.44259080386480    4.61221634043579   -2.83021139402819
C         0.48857667819534    8.98490999310810   -4.48575110438206
C         0.13255027207776    6.23723067884306   -3.06512642041739
C         2.13784915244748    8.32323146723239   -1.96927119461731
C         3.25254406017631    8.79717629953860   -6.85793232040915
C         5.09181259312581    6.38561310900502   -6.24221599835132
C         4.93309757480566    8.79232137652398   -4.27446049453096
C         5.85305213034532    2.59469646387902   -6.13436241823303
C         5.75530854351700    0.29519834571931   -8.19819651256098
C         4.92406913594300    3.12689896288691   -9.02953490351231
C         1.79664336081076    0.97018645130562   -9.62766357198320
C         2.50199672967127   -1.31331761376859   -7.68189732096299
C         0.44786012010258    0.82487848261940   -6.83993007956010
C        -0.90343448726851    2.61878380071162   -3.93695888686909
C        -0.99289310454200   -0.06123314276438   -2.39909212988534
C         0.04765500845068    2.46347353342195   -1.00324403115389
C         2.13381910912759   -1.76466163308293   -3.33582494365403
C         2.95983881012430   -0.05481826669764   -0.90683222625214
C         4.35286156216881    0.35062101674322   -3.64893865655956
H         1.21611647878232    6.72231074124290   -6.50438496081694
H         2.87016335246359    5.68466725454881   -8.00397915999341
H         1.86499345407075    4.24054016208938   -8.16447475574647
H         1.15713606910485    7.06491245289436   -9.11982734183083
H         1.60809872427590    5.70344874680391  -10.14888750979287
H        -0.86296045811377    6.02786015413569  -10.08552101347798
H        -0.40266520550207    4.46200108918268   -9.40879954428912
H        -2.07703448070563    5.58225042208230   -7.95970232295447
H        -1.01381452994414    6.98246804540226   -7.80146631912912
H        -0.36104132877203    4.13870955212101   -6.89391734975299
H        -0.80957671860147    5.48243605998949   -5.83053356631124
H         4.01549328745961    6.22908518219144   -2.76002396567556
H         2.29018572441829    5.01459080162458   -1.49224197985893
H         3.19413606057271    3.50453693461224   -1.64681887167636
H         4.08955204896151    6.01379561431055   -0.13259394649638
H         3.54405296504231    4.50109386339416    0.59556707770735
H         5.46800546590910    3.30934236255490   -0.41032308565792
H         6.03142586227080    4.66426559435262    0.57382107503855
H         7.21946973240886    4.59415599973234   -1.61129737846352
H         6.25304219007350    6.06380573369745   -1.46209423505230
H         5.95461482747668    5.02569391347121   -3.70047299462779
H         5.41413521750312    3.52213699450531   -2.93604627050004
H         0.13910109104162    8.68607111641537   -5.46869465749515
H        -0.37724534513376    9.30265686255880   -3.91375006779530
H         1.12845130513389    9.85236097454627   -4.60790426316147
H         0.55068984344683    5.24217647775178   -3.18987482560558
H        -0.76930599496889    6.29269215879084   -3.66657066842576
H        -0.16830225792496    6.34732674197168   -2.02737598685116
H         1.37066523148215    8.86817683037004   -1.42787357731820
H         2.94062801636554    9.02017951830288   -2.18123586142141
H         2.52812296901291    7.56303816113436   -1.30057021269230
H         2.80363464178989    8.22484396474444   -7.66313773591044
H         2.50787733154437    9.49614057859606   -6.49469441899993
H         4.06180434500097    9.38011525076126   -7.28671604539418
H         4.60499432846485    5.41674137312235   -6.31212210203403
H         5.99777258967525    6.25713381823561   -5.65825596305993
H         5.39598556921079    6.68138894079891   -7.24205457783261
H         5.26142121194375    8.26509555056393   -3.38457970068812
H         4.35595594172663    9.65465562922762   -3.95823815192775
H         5.81867495850744    9.16584315755476   -4.77837684423351
H         6.62504337330608    3.26401738640203   -6.50127859924352
H         5.21078449651845    3.17095073003089   -5.45674754030621
H         6.34738676288350    1.81671939653289   -5.56008985862947
H         5.70296524082913   -0.50373308481821   -7.46668077360537
H         6.80312409278196    0.49592580400391   -8.39683251375079
H         5.31055878041158   -0.07204373829337   -9.11632872867099
H         4.28619613595484    2.82209038470517   -9.85141097373423
H         5.93464589225581    3.22055316448940   -9.41476361355210
H         4.59950587218029    4.11187492091970   -8.71142088985866
H         1.55960517302383    2.01981467718534   -9.76862678612903
H         2.68439652515372    0.75596028282752  -10.21232538808151
H         0.98110822878096    0.38729618067242  -10.04320507258530
H         3.32535363787784   -1.56958344623013   -8.33864959969892
H         1.65078536563753   -1.92268546048300   -7.96869283156222
H         2.78789074955697   -1.59624347735244   -6.67395455933666
H        -0.34756032191904    0.22337522059471   -7.27181945065750
H         0.54284880345081    0.52759883374011   -5.79232495150719
H         0.12491293412686    1.86805791352456   -6.89663515346323
H        -1.45438295137591    2.01707943589023   -4.65381628882117
H        -1.62211890499426    3.25610335233914   -3.43109816503789
H        -0.21397184873704    3.27045255660921   -4.48809951645287
H        -1.01010708051478   -0.68353738765009   -3.28716970973402
H        -2.01981248093666    0.17174070458550   -2.13678253908513
H        -0.57323414202760   -0.65280901796064   -1.59312984726166
H         0.44427586158869    3.46704544653146   -1.11388602866394
H        -0.95397616794740    2.54750161684290   -0.59321622483046
H         0.66007824017309    1.94869733427949   -0.27163951528658
H         1.86237618189662   -1.78448194781755   -4.38643510510452
H         1.27214560104563   -2.09911320133018   -2.76961100397911
H         2.92784281867893   -2.48909935708549   -3.18463083468145
H         2.04298617715301   -0.31929891066032   -0.39177528605412
H         3.71331048462168   -0.78625291997072   -0.63321491592675
H         3.28024818813769    0.90979161240509   -0.52656151250121
H         5.10313892638586   -0.37443254756528   -3.34494900279760
H         4.73371600288510    1.33815374519272   -3.37381635423390
H         4.26207136403485    0.28313869026651   -4.73604518300831

