94
CSD_code = IDEQUD | q = 0 | S = 0 | Stoichiometry = C45H37ClN4O4P2Ru | MND = 6
Ru        1.30193668077701   12.90846585982066    5.50445902293966
Cl        1.46156085842490   10.70480899629956    6.35694032361760
P         3.29580248441456   12.67781854688985    4.32576538752714
P        -0.57274923274415   13.34876014751724    6.81053057851254
O        -0.34593073180847   12.11838826787303    3.15026592075431
O         2.48035501785421   13.99851594101236    7.04797621068245
O        -1.31065622352094   20.03496476656715   -0.83160573537222
O        -0.24064125218841   21.35621509306269    0.48687321556751
N         2.74037605097167   16.25738363833797    6.86194391395506
N         1.53939139962242   14.96991339076907    5.31642921454640
N         1.27667196560950   16.04008996151976    4.59382136728714
N        -0.65319927981264   20.25604042431599    0.16822252892558
C         0.29097900504688   12.41379087108756    4.06283810542871
C         2.27098238830649   15.06736319357827    6.43441281651060
C         0.57676818534035   15.89695681059761    3.52581846430634
C         0.26252970348616   17.01270464045626    2.68406077118533
C        -0.49395513582153   16.81874078156094    1.51946055902374
C        -0.79648419409983   17.87668892280398    0.69463293065508
C        -0.34469756058475   19.15346953516339    1.02403782323005
C         0.40686939606826   19.36774720096367    2.17988252948120
C         0.70513742563377   18.30672876959999    2.99874601274647
C         4.81077449147603   12.28235991901394    5.25634491200128
C         4.71957053045929   11.82825770640455    6.56617702020870
C         5.86820882843807   11.49906605508941    7.26524660494951
C         7.10745009319530   11.61883339748149    6.66097574997311
C         7.20100825668452   12.06826087095093    5.35213383315820
C         6.05936208968065   12.39751521301778    4.64796972618684
C         3.37995260807862   11.45589863075712    2.97800729471648
C         2.63967363610985   10.28489746403465    3.10947500820820
C         2.70803737187871    9.30793549956548    2.13238842551133
C         3.51336596227947    9.49166829249890    1.02100909761251
C         4.25254430020751   10.65603307965211    0.88742734226752
C         4.19115354333193   11.63582066619754    1.86083746529719
C         3.70300559757461   14.24489575866893    3.49724274817821
C         3.04619282324159   14.56307782847758    2.31031585467141
C         3.22774272050383   15.80162136489854    1.72447776022469
C         4.04327396162365   16.74270294069482    2.33181714840720
C         4.68386135271453   16.43874774396352    3.52168006678367
C         4.51703962234997   15.19536928661309    4.10480558113249
C        -1.08787519798255   15.07618898341307    6.57016903979266
C        -1.79482173467994   15.40123843197554    5.41411914094573
C        -2.08551468574966   16.72055890063007    5.12349087318951
C        -1.65156151898524   17.72803117372894    5.97003872157326
C        -0.93387155367423   17.41197348376508    7.11170023633313
C        -0.65077732268475   16.09184326502773    7.41394853774329
C        -0.42449813326418   13.19143943843895    8.61898588122952
C        -1.42898185269294   13.68264695373102    9.45090655589202
C        -1.32155986532527   13.53611995815514   10.82008919615350
C        -0.21932376780358   12.89721407254277   11.36844241398819
C         0.77657370041816   12.40397313495587   10.54377956483271
C         0.67635322469197   12.54795555070648    9.17059798854600
C        -2.10147590735793   12.41003650574831    6.49692715377420
C        -1.98350261033665   11.08598291695433    6.08514126235276
C        -3.11707542670638   10.32020973074891    5.87953415385944
C        -4.37239218115215   10.86824355144465    6.08309998789320
C        -4.49345099010551   12.18620827711609    6.49317065106942
C        -3.36509457716864   12.95712648945082    6.70271782054439
H         3.30718723847279   16.31048619825919    7.68824270846420
H         2.55546250218270   17.07163799296835    6.30447318429854
H         0.21279903713658   14.90369513936084    3.23933565222703
H        -0.83716211048952   15.82483422833363    1.27414053196784
H        -1.37642349130206   17.74393160370209   -0.20607969977332
H         0.74003021614401   20.36941287116253    2.40558776647478
H         1.28481618416604   18.44462638682054    3.89692665166264
H         3.75075911147511   11.72882649719812    7.03545336904048
H         5.79341664938972   11.14536546419445    8.28292796923737
H         8.00363147572045   11.36082172307130    7.20610981642603
H         8.16813924853227   12.16004739877830    4.87930583691441
H         6.13431318564660   12.74932075065736    3.62870176289098
H         2.01401133310891   10.14226437778172    3.98142975656726
H         2.12962357804817    8.40263191778220    2.23947016603605
H         3.56507238266139    8.73056181368315    0.25650509393164
H         4.87933699948620   10.80307995005758    0.01976166766530
H         4.76010122061107   12.54716287840554    1.73928252772246
H         2.39365978558281   13.82907461290994    1.85478252150449
H         2.72168472519900   16.04072180865750    0.80073143333794
H         4.17335209282351   17.71480987767851    1.88039861083933
H         5.31541496916537   17.17432360642767    3.99893457347607
H         5.01440104674632   14.95822323086716    5.03682061594924
H        -2.11123932128143   14.60785516653259    4.74870976381607
H        -2.63838185013056   16.96676328850260    4.22887486711211
H        -1.86767702650586   18.75949667743730    5.73525547211681
H        -0.59040662076687   18.19776660439141    7.76908852688493
H        -0.08501352872471   15.84453008613671    8.30317397389600
H        -2.28805691645293   14.18175289540144    9.02526473204832
H        -2.10041358894387   13.91926116053122   11.46345937017970
H        -0.14153986593789   12.78383332086572   12.43988964037109
H         1.63337142269461   11.90250596144349   10.96901796369968
H         1.45113053955410   12.15754508462883    8.52570240422977
H        -1.00062672989118   10.65939995944147    5.93027483988127
H        -3.01883827227347    9.29417980083529    5.55824368921457
H        -5.25780685391255   10.27158349283459    5.92040337986141
H        -5.47183277035970   12.61717173235097    6.64932987371779
H        -3.47111033783789   13.98918614359318    7.00726620537289

