73
CSD_code = IDEQAJ | q = 0 | S = 0 | Stoichiometry = C25H43ClOOsP2 | MND = 5
Os       10.73460319747966    3.02144512523998   18.49786764164657
Cl        9.74065829656913    3.77810439545978   16.59644162167751
P         8.70456763185930    2.26305419707079   19.39025611483813
P        12.89669560589171    3.00600077139633   17.55057125912562
O        11.76725735910368    3.98512186516143   21.16176222287231
C        10.70504555951617    0.75676557842462   20.52918513047755
C        11.54158166953448    1.53614938829490   19.71762137456518
C        12.89652775039068    1.19148467159232   19.61420976133965
C        13.36836329932800    0.03421637804727   20.21539464200679
C        12.51241957494399   -0.77573299820204   20.94279661524304
C        11.19060111491063   -0.40180814690567   21.11782121907190
C         9.31189543734260    1.25422546625916   20.82281444431569
C        13.82559524943243    2.14240333532258   18.90385620723192
C        11.36234830277478    3.59513738988252   20.13803877528489
C         7.45370561856734    3.46924877711847   20.14804142538645
C         7.02743442114939    4.44680504001662   19.05017998735312
C         8.22305804743901    4.27540220963429   21.19963747288453
C         6.23917229499136    2.81336446510668   20.79730351928856
C         7.84112009232582    0.94718353454825   18.32548269544640
C         7.05392644224083   -0.10981186881386   19.10271740193502
C         6.93663696744482    1.61223706044624   17.28866179614366
C         8.99070127716044    0.24997105749252   17.59002386709573
C        13.82941617231504    4.64065168192602   17.34100143152033
C        15.34760526227663    4.55167727486872   17.48119701190895
C        13.27919793844802    5.54059511731806   18.45281617066550
C        13.44472538469537    5.25899760997083   15.99706833746738
C        13.21262994867081    1.84733665588144   16.07703778930911
C        12.32931011354218    2.24874370625600   14.89490078960046
C        14.66795408181403    1.76946039086112   15.62187400695698
C        12.76296469727881    0.46433621798309   16.56225364907809
H        14.41193596933675   -0.23442288812584   20.12172250174952
H        12.88170142125894   -1.68334309550002   21.39611075531533
H        10.53569639457368   -1.01085128367983   21.72607867884587
H         9.38742109279619    1.93234059360992   21.67817899425616
H         8.63521310020749    0.44422417622602   21.09508240153669
H        14.73064066700116    1.64547166044646   18.54923286290679
H        14.12150256920128    2.91516101589023   19.62197516233127
H         6.52765150740886    5.30877542447028   19.49043860995234
H         6.34410486082750    3.99359207704465   18.33936720314914
H         7.90338804023073    4.80339861650839   18.50834600769557
H         7.63809534077324    5.14476058246641   21.49608280467550
H         9.16983984371173    4.62811687628607   20.78673106400496
H         8.42487578057271    3.69510724432429   22.09685332848533
H         5.65872198023920    3.57183709433278   21.32230641959349
H         6.54122467580797    2.06021984988574   21.52308956186952
H         5.58879442352517    2.35584747341951   20.05586393592458
H         6.47392665009312   -0.70141080347165   18.39455772662674
H         6.36254582464934    0.32656120416686   19.81675956444201
H         7.71947954030193   -0.79184684588359   19.62656050660586
H         6.68664782779114    0.89597433350326   16.50571954725030
H         7.44408447045276    2.45511176381700   16.82254958728819
H         6.00540227396250    1.95454426182867   17.73400390716408
H         8.60527448775021   -0.55204065112549   16.96084867858949
H         9.70220369285295   -0.18150354399944   18.29532707358987
H         9.50707489917315    0.96218901410893   16.94360170172429
H        15.76872823379745    5.55283215122856   17.39114096032860
H        15.79582492179007    3.93312578790713   16.71065538885810
H        15.63361396062665    4.15810284372007   18.45337946706094
H        13.70436953939624    6.53993398033922   18.37235936218356
H        13.52077839995805    5.15033111431236   19.43959865432946
H        12.19242691447298    5.62210286416238   18.37316653622632
H        13.71593416911877    6.31409631266824   15.97996757764732
H        12.36878019432082    5.18375702728333   15.84295481104669
H        13.95682516783313    4.77157306761186   15.17092296742265
H        12.34376222078756    1.46299775565234   14.13967174765352
H        12.67038569565499    3.16698831278243   14.42612726024505
H        11.29864782675655    2.39461664941567   15.21098361326913
H        14.77108359450922    0.95009921397991   14.91031935953823
H        15.34409271450715    1.57443344189498   16.45149426728441
H        14.97787028317713    2.68177535702976   15.11854893993784
H        12.68861697372942   -0.22062397134294   15.71824994296950
H        11.78356263646499    0.52381976849150   17.03689271889222
H        13.46083040916220    0.04045782464361   17.27964345779214

