73
CSD_code = IDEQEN | q = 0 | S = 0 | Stoichiometry = C24H45ClOsP2 | MND = 6
Os       -0.67643279423163   18.47574731140872   -0.54385051624272
Cl       -1.50385069697156   18.79888905415842    1.54132382119553
P        -2.76222920816052   19.04133779303005   -1.53545779158010
P         1.56698647570465   18.63811717932353    0.23080772361448
C        -0.83351453384573   20.34971175990496   -2.93176199949686
C         0.04720087727199   19.74133232327438   -2.03046840100361
C         1.38416877702195   20.15365846381732   -2.02021546218957
C         1.77492592741004   21.27199181917779   -2.74539762925570
C         0.85922945628962   21.94828225987083   -3.53263078193990
C        -0.43259312882774   21.46626986272787   -3.65388556103719
C        -2.17751509002118   19.71178722827179   -3.15712419093160
C         2.38821449038697   19.30679064124244   -1.28613327841966
C        -3.96548192068703   17.64547889151307   -1.98905762677123
C        -4.30556158903530   16.90683202394414   -0.69278194335477
C        -3.18498522457507   16.67817080181509   -2.88605839314583
C        -5.23939586238537   18.07118800373285   -2.71315712356936
C        -3.70338089789090   20.55285110494212   -0.85372679827135
C        -4.56592813560920   20.13018854360885    0.33541656799885
C        -2.62607295335467   21.52261215715322   -0.35503190121103
C        -4.56218775847338   21.30257551035383   -1.87706506308635
C         2.50882494236444   17.03935228076524    0.63018797889173
C         1.72387594439434   16.31962376830791    1.72885691564471
C         3.96869528725601   17.20964192567871    1.03992552437026
C         2.44534273197939   16.17157709047184   -0.63167406953318
C         1.98993842334743   20.00811905859908    1.48752965583359
C         1.68484592798425   19.51818595005367    2.90311117464830
C         3.42414380258723   20.54216083494435    1.42435793232206
C         1.04917933164687   21.17256139511515    1.15761092267127
H        -0.21777259729126   17.71167783790220   -1.83807414657504
H        -0.92226021441976   16.93912013130455   -0.28953264075591
H         2.80277380419545   21.60727584723990   -2.70363098088499
H         1.16339282426310   22.82589740031558   -4.08384239204166
H        -1.13037998132228   21.95290507876954   -4.32230925276783
H        -2.88753355475100   20.38727648735895   -3.63365998532552
H        -2.01968819573627   18.85218036425973   -3.81490514512230
H         2.61538399203732   18.44999759882148   -1.92684221686197
H         3.31598846810317   19.84057351233233   -1.08132015768963
H        -4.82656709805098   15.97713985643914   -0.91760588534249
H        -3.38753668176309   16.66499162495291   -0.15677573525210
H        -4.94099232738076   17.49781171652474   -0.04078517177654
H        -3.70091164592265   15.72031532841063   -2.92383119241757
H        -3.10546116750926   17.04918189056777   -3.90525769122625
H        -2.18376702903427   16.51284878997303   -2.48383824132580
H        -5.77692972649683   17.17966309176349   -3.03663697460510
H        -5.90344879050173   18.63616641666541   -2.06393600114336
H        -5.01063033858837   18.66107579037099   -3.59920655566082
H        -4.87814267866177   21.01182666361303    0.89561151072820
H        -5.46255526519899   19.60765033781177    0.01030203747776
H        -4.00102883607126   19.48829401824446    1.00902929603301
H        -3.08983857173475   22.44822324286846   -0.01349598564403
H        -2.08724152211830   21.09632612313861    0.48848554775460
H        -1.91588999359961   21.77396050480106   -1.14413704106741
H        -5.20139534690020   22.00398329761360   -1.34047876593233
H        -3.94700442805049   21.88492651491647   -2.55963345324593
H        -5.20254356851302   20.64529468357575   -2.45479662685016
H         2.11779514977980   15.31438975290752    1.87248721874513
H         1.77960172932212   16.84118856502923    2.67896974415662
H         0.67621755688402   16.24029740770102    1.43812935350006
H         4.43424461129328   16.22635224409797    1.10803080386992
H         4.52048134940640   17.78865144576016    0.30122991290864
H         4.06138458625746   17.68333483160174    2.01388501084575
H         2.68190580556097   15.14014596880516   -0.37602232044893
H         1.44093461330642   16.19733181829718   -1.05834370272941
H         3.16268302352891   16.49717721847938   -1.38142066433024
H         1.65550579437991   20.36579274281811    3.58827254392562
H         0.71449029536442   19.02612370227548    2.93719919892164
H         2.44839489937904   18.82957012671611    3.25781848223193
H         3.58838488340669   21.18247540428110    2.29137868496017
H         4.17018814129592   19.75541182563470    1.44698197856490
H         3.58293499773993   21.15367862384569    0.53870594736408
H         1.26797889123967   22.02162029620987    1.80559248645615
H         1.16413710807557   21.50018806538697    0.12343525986971
H         0.01287443322004   20.88945077239718    1.32922422255373

