48
CSD_code = IDESUG | q = 0 | S = 0 | Stoichiometry = C16H23BN6OPt | MND = 5
Pt       -1.79550978506428    6.88092189918929    2.63810572018918
C        -0.67024742538182    6.05485582250553    1.42564867676944
O         0.00532370636310    5.56594096267576    0.63932122205231
B        -1.84018037572220    7.04966441901553    5.91216503805553
N        -1.85237398265570    5.32678702274569    4.06259859725408
N        -1.76165205762488    5.60573465463789    5.37111609507972
C        -1.64183364928800    4.46160104018600    6.06695858694222
C        -1.67034559845259    3.41374015477196    5.16280410128756
C        -1.80566920075379    4.00666668070771    3.90747624520614
C        -1.50206440146160    4.39505410941279    7.54440779041048
C        -1.91502829902548    3.34850414894414    2.57830900749944
N        -0.19272617797849    7.89717316932729    4.27610580437857
N        -0.54467217653396    7.77902924217693    5.56321004644479
C         0.38157524298024    8.36592008317851    6.34987610690313
C         1.36243605551303    8.87677445550928    5.52128744048015
C         0.95335361408710    8.55498246222248    4.22055361609935
C         0.29322447488373    8.41808446545852    7.83328238609226
C         1.61516864849009    8.84581625000519    2.92255287284512
N        -3.17927522502763    7.72118451220007    3.85039413556572
N        -3.01393333103522    7.74689357477443    5.18709738176964
C        -4.03281592801372    8.41779772650922    5.75171776910518
C        -4.88675353574849    8.82099210785316    4.74027809726331
C        -4.31325955932347    8.35948354166134    3.55715529868218
C        -4.17203407634663    8.66125851963642    7.21085789419733
C        -4.84003301768432    8.50022012159912    2.17331515093234
H        -1.60314558806810    2.36745001749426    5.38104405020339
H        -5.79935643182262    9.37137260642038    4.84501478630817
H        -1.39499850047972    3.35804967780457    7.85144333606287
H        -2.37546064187072    4.82009480245143    8.03627064932810
H        -0.62591556504491    4.95247667756540    7.87082071863860
H         2.24657216941352    9.40663048763107    5.81358161409588
H         1.16135976417941    8.93757071704767    8.23031028449361
H        -0.60606354570802    8.94520369846250    8.14884299772682
H         0.26028776063034    7.41495597064134    8.25595252883522
H        -5.92353934923797    8.59069900452510    2.19784987611808
H        -4.43003043307823    9.39192811073858    1.69939579318462
H        -4.55914035688891    7.63573519561533    1.57206465745408
H        -2.02973789125518    7.03693294033232    7.07607877293491
H        -2.48265743009713    2.42426341224034    2.66435158660456
H        -2.41559254614159    4.01249628412861    1.87116419269022
H        -0.92715376786082    3.10509845297277    2.18666928201219
H         1.81539193350258    9.91164968272177    2.82460435897016
H         0.96036770264548    8.52553501037748    2.11198611479474
H         2.56264801485922    8.31284371255364    2.84767310130083
H        -5.06010480715833    9.26086065421756    7.39239622610891
H        -3.30297943675785    9.19145260399114    7.59565133381778
H        -4.26415969684493    7.72263837524905    7.75479561796161
H        -1.95016529611203    8.02728075791097    1.64074303885356

