95
CSD_code = IDEVUI | q = 0 | S = 0 | Stoichiometry = C40H46Cl4N2NiO2 | MND = 4
Ni        6.07094781665141   -0.00001159765770   -0.00001502618932
Cl        9.96491993910237    4.73840169466202    2.15844881950669
Cl        6.05397655647979    2.84316639233796    5.30394963767529
O         7.08445715638522   -1.32204388636972   -0.66913017982633
N         7.52677476457695    0.37624164672171    1.08575824252024
C         8.26214035345726   -1.44017589178104   -0.13556084842415
C         9.22586093684610   -2.42937613533312   -0.46216822610261
C        10.41813366159449   -2.38111715128228    0.22073440559971
C        10.73269074386291   -1.42431729437953    1.21292893499061
C         9.80051310973686   -0.46847283604739    1.53490667934415
C         8.56752183419820   -0.46406767058921    0.86528058339935
C         7.69398842816545    1.46799408101580    1.94091546473231
C         8.65470480109560    2.44416659772293    1.66357331633046
C         8.78149421062382    3.53094199145164    2.50727571563370
C         7.98213485157269    3.67477868000020    3.63140313204998
C         7.04030781917712    2.69289596325363    3.89774705972009
C         6.88749346685087    1.59430742316473    3.07221228430927
C         8.92532727865865   -3.45313719181845   -1.54357711311646
C         8.80207141927231   -2.69989368539589   -2.87403242166080
C        10.02227794152301   -4.51208519044399   -1.68054496699701
C         7.60507288042741   -4.16786159112975   -1.22608742077317
C        12.09149817147335   -1.50251398763439    1.88913915147609
C        12.30253775735218   -0.38162584883499    2.91065594067340
C        12.20878266243017   -2.84754172250929    2.62035336099834
C        13.19288170463058   -1.38917945596417    0.82508759958409
H        11.16475693956796   -3.12284819487917   -0.00364795807284
H         9.97803567505739    0.26929729566449    2.29864152554034
H         9.27297322157597    2.35455532566214    0.78385104513337
H         8.09162872717211    4.52703922461272    4.28118888159768
H         6.15817423461607    0.82907972397041    3.28881748877336
H         8.55523375457428   -3.39032466002520   -3.67661219895126
H         9.74060348276836   -2.20494775976637   -3.11693973072667
H         8.02002392267416   -1.95108585224065   -2.80701281970860
H         9.73154692620001   -5.22842039564648   -2.44576837298265
H        10.16306199845151   -5.05406305711872   -0.74787005538101
H        10.96723985585689   -4.06708320034885   -1.98393419378069
H         7.37331576027385   -4.88577658784805   -2.00974541160463
H         6.78708012548158   -3.45709267033570   -1.16042911131700
H         7.68298149856675   -4.69988944848938   -0.27994766917006
H        12.23708149336904    0.59584483471287    2.43877432960948
H        13.29241617213493   -0.47639393531829    3.35181716905795
H        11.57156940412908   -0.43934785405734    3.71346100380725
H        12.12723308288730   -3.68406075146949    1.93214600494488
H        11.42036465820503   -2.93964883350290    3.36418909786173
H        13.16995446352418   -2.91433069983448    3.12530465358558
H        13.09366291794355   -0.45258955668646    0.28050114755521
H        13.14645591488243   -2.20600013987591    0.11064847222038
H        14.17143448431570   -1.41024382255660    1.29976958957131
O         5.05743589732953    1.32199889789405    0.66913831746660
C         3.87977128555815    1.44017026904353    0.13553715345498
C         2.91610393394194    2.42944806384104    0.46206608807292
C         1.72381732496281    2.38117997303473   -0.22081225536749
C         1.40921388701734    1.42432591764563   -1.21294048592115
C         2.34135556352962    0.46843008811108   -1.53487170426505
C         3.57434889775342    0.46401615923529   -0.86524872139228
N         4.61505560839914   -0.37635727147233   -1.08566911065594
C         4.44778134612590   -1.46817784411420   -1.94072730217807
C         3.48702645362746   -2.44427710353327   -1.66327610880361
C         3.36011802223414   -3.53108832725966   -2.50691191609943
Cl        2.17675442987794   -4.73853994652186   -2.15785452655925
C         4.15950948342971   -3.67511264624079   -3.63099558824069
C         5.10142880568295   -2.69333960769697   -3.89740684727020
Cl        6.08759866599200   -2.84369893009555   -5.30371140600346
C         5.25424981316908   -1.59463625863431   -3.07202558030157
H         5.98356093598952   -0.82943687067900   -3.28874747978022
H         4.04995971141995   -4.52742364093435   -4.28070524076090
H         2.86881831081526   -2.35457747799158   -0.78352265310165
H         2.16379586483511   -0.26938556122274   -2.29855428513848
C         0.05040533057007    1.50253566043814   -1.88914634601361
C        -0.16068011913244    0.38158503456736   -2.91058432463001
H        -0.09525552066221   -0.59586393732450   -2.43864862957514
H        -1.15055887172148    0.47636554970042   -3.35174146449196
H         0.57028250029941    0.43923752376704   -3.71340035135780
C        -0.06684034316462    2.84752693285898   -2.62043704786236
H         0.01473789045527    3.68408107286463   -1.93227472899585
H         0.72157647685325    2.93956757644508   -3.36428318135449
H        -1.02801337402773    2.91431535674988   -3.12538640542040
C        -1.05096475028187    1.38929087691657   -0.82507038331589
H        -0.95178256117161    0.45272668418018   -0.28043104323416
H        -1.00450808830053    2.20615099940275   -0.11067832044984
H        -2.02951765756346    1.41036703932786   -1.29974921109997
H         0.97722893871147    3.12296145951239    0.00351950590871
C         3.21671553959680    3.45331244727141    1.54335618774358
C         3.33994256327369    2.70020899755184    2.87389153135664
H         3.58682509226230    3.39071666536472    3.67639167360857
H         2.40138132507718    2.20534766220155    3.11685911198583
H         4.12194858214537    1.95135034479118    2.80694953851936
C         2.11984064994890    4.51235288956378    1.68021247505702
H         2.41061973065637    5.22875063703771    2.44535929650215
H         1.97908464909719    5.05423952428580    0.74748043138573
H         1.17485415697026    4.06744238359148    1.98365376700241
C         4.53701395046219    4.16792234813734    1.22578766306226
H         4.76882963544468    4.88590494174618    2.00936701940413
H         5.35495707918554    3.45709152331305    1.16019518783127
H         4.45913397295203    4.69985160554426    0.27959068826252

