117
CSD_code = IDEXIB | q = 0 | S = 0 | Stoichiometry = C50H63BN2Ti | MND = 13
Ti        5.03358792355804    4.54120285766748    3.84607389311002
N         6.96412048043438    4.34114389514321    3.49045441620895
N         7.38759948675968    3.20173971916751    4.20414588004855
C         3.71197165799909    5.54626537398600    5.65363946172615
C         3.66904572478097    6.47032907194003    4.59553134154759
H         2.77881631695255    6.87087322563622    4.13107109249284
C         4.98032982474341    6.91015657265067    4.31796285491683
H         5.24158178752016    7.72374057017078    3.65319167332384
C         5.84330879734990    6.29584940312324    5.24233418547658
H         6.88146594935026    6.54538584614551    5.40302947641647
C         5.07235719548187    5.43477127515837    6.05028019549520
H         5.45137928179571    4.89034906212373    6.90375704377849
C         2.52333442904756    4.81567116643140    6.23544702976633
H         2.23375129416077    4.03105732678429    5.51877801908195
C         2.82792226833104    4.12288235923446    7.57172202010733
H         3.70040862834655    3.47073954239703    7.44414438821135
C         1.62270621292190    3.27104217686889    7.97413261581079
H         1.42701426650982    2.51758513864643    7.20693024715959
H         1.83564916422818    2.74717263353286    8.90903964514120
C         0.39574860691480    4.16475405260081    8.14982330209754
H        -0.46642920258409    3.55062477589515    8.43466186795656
C         0.09746882318519    4.88359087738594    6.83602992614766
H        -0.12420018414914    4.15243768892507    6.05437373063998
H        -0.78103202240003    5.52276312754147    6.95413057391893
C         1.30351192922686    5.73205645106882    6.43334593962084
H         1.07460439067276    6.24904401516389    5.49543094326341
C         3.09896624052629    5.15269999656619    8.66884784253125
H         3.96245070499199    5.76672017738245    8.40985404928205
H         3.32013777191706    4.63807513977004    9.60726319944189
C         0.66801132562113    5.20013368068549    9.23976028630721
H        -0.20918401406043    5.83749960476946    9.37443591736025
H         0.86537231617981    4.69807767203838   10.18983731637025
C         1.59341162731447    6.76430147934201    7.52089758953927
H         2.45893879752052    7.36577740714933    7.23353770443706
H         0.73688933056621    7.43355897477428    7.63327915188819
C         1.87435060051664    6.04888048544171    8.84106305371836
H         2.07198554761673    6.79108048010274    9.62304995119260
C         3.01711966587227    3.07288059974217    2.61972420480206
C         4.24453869962125    2.84492454693766    1.95414384292662
H         4.68530599441184    1.88066166987916    1.74850035462620
C         4.76705093933722    4.08275647333925    1.53641224085663
H         5.57562325967522    4.22396871834557    0.83251395546606
C         3.87396849565083    5.09957592264507    1.96151292138016
H         3.86995910278170    6.12342716888773    1.60232181036031
C         2.79708719356627    4.45820724047706    2.62318458784649
H         1.89904669109659    4.95285778801800    2.96404674186871
C         2.12798730501951    2.02313643127456    3.24263617620742
H         2.44822975618331    1.89528157946631    4.28913615714679
C         0.64499448575628    2.42820444651845    3.24265964264146
H         0.52808633310108    3.40000203756813    3.73468848679512
C        -0.17050820480106    1.39035594146796    4.01329329829269
H         0.18345376323875    1.32786686942931    5.04604467837733
H        -1.22108027425011    1.69129859891472    4.03880048132787
C        -0.03587251367662    0.02849234506108    3.33605006317287
H        -0.61980738368679   -0.71570170388615    3.89031310358572
C         1.43495444261881   -0.38182724273771    3.32141553981902
H         1.54255545622449   -1.36002296055887    2.84654103899732
H         1.80925959555497   -0.46492443207169    4.34487056565269
C         2.25130060832775    0.65637707279778    2.55134311293884
H         3.30084489369801    0.34560583148470    2.54960536866777
C         0.12888804953371    2.51917686467189    1.80753448226268
H         0.70594497636879    3.26278376775077    1.25420912059444
H        -0.91796535496406    2.83360315368746    1.81019052167276
C        -0.55356407432032    0.11864587859701    1.90134908947398
H        -0.47025976286060   -0.85610618186969    1.41489244679100
H        -1.60898414504263    0.40201078768213    1.90372503472202
C         1.73449341969412    0.74745538273296    1.11649418848538
H         1.84811562222178   -0.21954841465351    0.62044452470660
H         2.31654628063084    1.48494339174840    0.56030094967811
C         0.26265023294623    1.15621368555097    1.13143669503346
H        -0.10927167797109    1.22140116804482    0.10232667726575
C         7.53418068978112    6.32541815045297    1.83365180684399
H         6.46419731104768    6.57418794919018    1.81253945318890
C         7.93168000287381    5.93537569026885    0.39393747702991
H         7.32078473573646    5.08824456437982    0.07133203416958
H         7.71959963572267    6.76615488403000   -0.28700440356670
C         9.40219975636884    5.54639923242817    0.26456550462697
H         9.59138637820140    5.20316100159138   -0.75636513424320
H        10.02635300939202    6.42633877272391    0.42447935469456
C         9.80749625630876    4.44891801282602    1.24537400900771
H        10.88207238489152    4.26443183115631    1.15191675361385
H         9.29334042234372    3.51996712701123    0.98678111205262
C         9.46615025691386    4.80725085961366    2.70441671939725
H         9.79472315132751    3.96224815698639    3.32013183497003
C         8.32817305533481    7.57111977892327    2.29476435623285
H         8.87664361832893    7.99930216778983    1.45359070399263
H         7.63908319248436    8.34277745951279    2.64771613703379
C         9.30512631863705    7.26398350415586    3.43150241252292
H         8.72388142297205    7.05180613992572    4.33262573349892
H         9.90960356350410    8.15206494609383    3.63779424335606
C        10.23082170499848    6.07733269354815    3.15137738445307
H        10.79672067614420    5.86731206376549    4.06317336728766
H        10.96001509858939    6.36195428156342    2.39107228329052
C         7.71588695186616    2.03206673699872    3.54390814540088
C         7.45861173295625    1.88868921105993    2.17599955566455
H         6.99970455337362    2.70515725865991    1.64215761333224
C         7.79977902839487    0.72908699723972    1.50915218938012
H         7.58371533030909    0.64282635269755    0.45354384896444
C         8.41608241311749   -0.31590415942503    2.17656465063012
H         8.67806479668041   -1.22274654234856    1.65365781183897
C         8.70711067200721   -0.17091924462583    3.52329149064078
H         9.21143496835682   -0.96563301304266    4.05383442143381
C         8.37192372088462    0.98304033356085    4.20190363032951
H         8.63640345365794    1.07958703187821    5.24364728916472
C         7.54705982395906    3.33172008472694    5.59710513749277
C         8.30767650708028    4.37518821344264    6.12343198439531
H         8.81096318232144    5.04992202785963    5.44861984411023
C         8.43644123359538    4.52463614516556    7.49243493829794
H         9.03139288394686    5.33478424487120    7.88840568705482
C         7.81614386379768    3.63593727415917    8.35443710574597
H         7.91517225905219    3.75643600555847    9.42264142758820
C         7.07129870713288    2.58641048459382    7.83751235966312
H         6.58755121050819    1.88949057471023    8.50643791304817
C         6.93386443100613    2.42984342517674    6.47139759177295
H         6.34519424167757    1.61807839432420    6.06815830834366
B         7.88940315337439    5.08247328994338    2.77173476973595
H         4.77754308767365    3.19286187448538    4.61669921254172

