41
CSD_code = IDEYAU | q = 0 | S = 0 | Stoichiometry = C16H17Br4N3Pt | MND = 6
C        16.54046391130121    2.84070259745255   -0.15334356721174
C        15.14452715785613    1.43354830676070   -1.15232631139003
H        14.44355303911039    1.09861234884602   -1.88804816600490
C        15.65413437146991    0.80585983912926   -0.07067421581064
H        15.48383361807528   -0.17561778897000    0.31949643029722
C        15.28841621627228    3.61054173972599   -2.21933017154263
H        14.39922845866404    4.15548672743374   -1.89881639391068
H        15.05955066120251    3.04974293423828   -3.12365884188046
H        16.07207635134188    4.32650056054493   -2.44648005301592
C        17.18202786819874    1.28091759340733    1.75613420045009
H        17.64339158503045    2.14763819731270    2.22862478294174
H        17.97495708621244    0.57202539410915    1.49944233160950
C        16.20762047320188    0.66019583069471    2.72346277671285
C        15.04853666945220    1.34229447431963    3.07388177744521
H        14.85021019318632    2.31663655230381    2.65339141668188
C        14.15598875678591    0.78501193058491    3.97059510372169
H        13.25988025321905    1.32381749880537    4.23888126132054
C        14.41499903233601   -0.45583432702429    4.52868356061872
H        13.71933857860545   -0.88891993441595    5.23165484014559
C        15.57028925595448   -1.13711477585904    4.18697537624396
H        15.77892519853269   -2.10295509601846    4.62246107322288
C        16.46168743190458   -0.58313726537351    3.28424457211663
H        17.36395716333002   -1.11611868486892    3.02047428307052
C        18.97636990832014    7.20341712823915   -0.19108253984438
H        18.33763830396160    7.16145030882731   -1.06267915718149
C        19.76570387569295    8.31768769517094    0.02866187408598
H        19.73393416771268    9.13453442468697   -0.67372623988284
C        20.57922156497066    8.35581443485818    1.14865359989694
H        21.20727148738170    9.21043471317546    1.34808211909065
C        20.56566147106540    7.26835494389038    2.00595936458915
H        21.17788476483092    7.24148162433594    2.89256142216320
C        19.74605109769895    6.19306704763927    1.71483260443604
H        19.72672755344652    5.33840549545497    2.37702658601042
N        15.69595191538684    2.68178032847173   -1.19442335371962
N        16.50545852045671    1.68279699521781    0.53776495676790
N        18.96652045742402    6.16137421235240    0.63665378007859
Br       18.63672196089015    4.51184186552016   -2.15493284396682
Br       19.77971300367412    3.01049804913578    0.70109549497879
Br       16.95480912556476    4.62483347991421    2.68376996517182
Br       15.81752569879535    6.12612659426260   -0.18226605006463
Pt       17.72914179148249    4.48096600570891    0.24182235155825

