63
CSD_code = IDEZOH | q = 0 | S = 0 | Stoichiometry = C35H26AuP | MND = 2
Au       -0.13824623582955   -0.03461865683749   12.12912111539478
P        -1.12448198782720   -1.88207665321670   11.28313776623101
C         0.69699921335337    1.57282200581305   12.84797110255683
C         1.19698134561197    2.58039355651457   13.29561873269206
C         1.77129172601170    3.76071007458432   13.82166822109988
C         2.09681536603957    4.82860571546024   12.97933669570700
H         1.91074004203938    4.73643729189146   11.91809272367593
C         2.64397792902890    5.98311177704646   13.49192265056359
H         2.89293819682241    6.80864926598269   12.83931614205126
C         2.01452967075009    3.88151827562100   15.19360312799962
H         1.76504212504759    3.05606878728382   15.84609191777043
C         2.56093954048485    5.03520470071463   15.70894222957083
H         2.74621831328075    5.12747375199085   16.77032854295572
C         2.88124911189704    6.10307916503531   14.86481774542977
C         3.43135503464944    7.28806944647986   15.39177308252364
C         3.89760424308230    8.30767797659935   15.84328427915827
C         4.43759367649340    9.49710340532480   16.37324258583161
C         4.80943006520094   10.54558340587864   15.53024815160134
H         4.68259882921219   10.43745754409808   14.46255219677183
C         5.33475663897061   11.70850922412437   16.05732416276694
H         5.61932428789895   12.51303050875318   15.39306748527390
C         4.60681184555827    9.64549347687441   17.75221374918276
H         4.32161555782268    8.83720556258035   18.41031471671797
C         5.13227235424543   10.81265536119815   18.26484915110995
H         5.25924798814356   10.91841223192881   19.33355718208030
C         5.50384925203987   11.86103067293963   17.42806440860847
C         6.06002023234362   13.12690987615500   18.00612395842534
H         6.46235410598360   13.76850402575516   17.22587501233732
H         6.85052960874945   12.90715321576442   18.72219524009672
H         5.27815449625153   13.67537290833340   18.53252394636993
C        -2.31740975076696   -2.67393673713882   12.39725524735070
C        -3.33065077623034   -1.85193985871258   12.88892282861872
H        -3.38185505002579   -0.82101488349765   12.55932917194035
C        -4.25589243501857   -2.35240479248244   13.78325625797033
H        -5.04426143281212   -1.71630160395110   14.15753250252212
C        -4.16407226412466   -3.67028217495042   14.20569134642082
H        -4.88420115874870   -4.06172046424833   14.90862053538594
C        -3.14594212299132   -4.48240958901055   13.73497727237414
H        -3.07117992184946   -5.50581388405402   14.07240473181444
C        -2.21810536008175   -3.98927525487148   12.83366275906559
H        -1.42138929478532   -4.62355582347427   12.47017374129638
C        -0.02793066972000   -3.24580332069107   10.79458982304321
C         1.20771008729060   -3.33381887829164   11.42778843482382
H         1.47974510530281   -2.58927620686754   12.16588119608556
C         2.07646808106088   -4.36167765839629   11.10913851514203
H         3.03460901809428   -4.43013483563695   11.60240692823023
C         1.71703064856650   -5.29786198733175   10.15326480340814
H         2.39585632947865   -6.09903646415813    9.90146917472742
C         0.48967120716106   -5.20687481187328    9.51487450325525
H         0.21378415425891   -5.93634269900337    8.76747486648717
C        -0.38517250025621   -4.18416582492718    9.83091137781313
H        -1.34297268756961   -4.10979256820496    9.33409332082694
C        -2.08668556992761   -1.60069894613613    9.76778003873269
C        -3.35425981856339   -2.12290895262853    9.53722612927999
H        -3.83184464581745   -2.74080397766269   10.28546257688781
C        -4.00157532115923   -1.84555438661478    8.34608755589231
H        -4.98679323176464   -2.25063963681171    8.16646899041741
C        -3.39238023428591   -1.05333011064934    7.38673424907961
H        -3.90429072704421   -0.84057278649846    6.46010352288168
C        -2.12995096858590   -0.52880037503312    7.61616080492775
H        -1.65707742299551    0.09329038157183    6.87087211777038
C        -1.48030950226479   -0.79703044554787    8.80551600668284
H        -0.49898433716127   -0.38335834288935    9.00439064629217

