64
CSD_code = IDIHAH | q = 0 | S = 0 | Stoichiometry = C25H33N3Si2Zn | MND = 3
Zn        7.32695627687158    4.63935581868325   10.24756070823953
Si        6.10207673797419    6.52980809695004    8.17458996162494
Si        4.55615013543714    4.03203020316563    9.10430714429090
N         9.22807677930233    4.22920055515758   10.10967379053748
N         7.60186866788815    4.31994693558542   12.15105824339676
N         5.91769802290090    5.09233416905642    9.11142890270005
C         9.34945407921298    3.94063270497040    7.74133592825072
H         8.35730199513650    3.50965998161290    7.78692942444324
C         9.99975782009241    4.10025992824686    6.53418250693996
H         9.52170824123904    3.77676582261658    5.62105457293448
C        11.25923295720653    4.67744892805271    6.48899982051190
H        11.76512766907012    4.80554778532373    5.54405871905412
C        11.85825990801313    5.10375537688163    7.66270738710742
H        12.83069365320880    5.57345905425150    7.63347670296343
C        11.21939420656572    4.93979455328478    8.87695113217968
H        11.67772832830659    5.30005306807130    9.78686907969207
C         9.95707729425289    4.34362411135095    8.93125190237260
C         9.75189402147120    3.86811865413852   11.27720638502217
C        10.99191906371530    3.20989944809596   11.33894609852152
H        11.37117394476298    2.92129629693481   10.36470916797482
C        11.78804184112069    2.84874804081399   12.40538795073447
H        12.68360791437479    2.29735397525953   12.14471844348172
C        11.63769447186499    3.15704885703719   13.74835561930976
H        12.44793449740997    2.87492490196720   14.40706994182094
C        10.55155208059891    3.79196540878053   14.33030567709757
H        10.63941239701686    4.00249168037994   15.38953951277378
C         9.33983439594533    4.12904779218226   13.76513110910754
H         8.61084667399626    4.54131755118291   14.45422945422210
C         8.87288294998798    4.06009536710774   12.44138408145577
C         6.57226486919065    4.31579628020853   13.08542671328015
C         6.44550996596857    3.33161216572012   14.06884571652430
H         7.19088189329642    2.55257733765846   14.14181043381420
C         5.35302378030837    3.33209707551268   14.91497294435769
H         5.26284952299034    2.56097374612697   15.66618697626435
C         4.37543032384834    4.30659770531910   14.80175336653152
H         3.52631329173076    4.30334650859322   15.46825646127286
C         4.48647455762597    5.27585179236547   13.81703141809494
H         3.72111381793933    6.03135363256466   13.71501760604987
C         5.56929810730165    5.27809697479378   12.96085041611818
H         5.65640536970994    6.01782552175211   12.17509004549677
C         7.61876375815340    7.41869727730888    8.92618154364510
H         8.54029602804596    6.96198774970119    8.57581628073092
H         7.60693824688810    7.35891236133198   10.01494674882913
H         7.65542233202248    8.46930072510298    8.65830786911316
C         6.48244466425007    6.18872089095160    6.33321986820871
H         6.61946812285302    7.11664170612882    5.78668860121708
H         5.67287923114449    5.64455094267554    5.86025609970344
H         7.38849927753449    5.60253957682717    6.21862141505899
C         4.56767320889660    7.65860073900338    8.27665852169311
H         4.74340865665590    8.60332222282514    7.77242509244319
H         4.29260014788306    7.87555709648952    9.30319058250432
H         3.71660775708336    7.18507384475759    7.79990482153992
C         4.00784609202439    3.57647097785677    7.33499067538137
H         3.62185596073156    4.44985907509392    6.82122962432460
H         3.22088576116948    2.82942967400565    7.35021232244025
H         4.82897172903141    3.18263822648722    6.74581120696131
C         5.14251679335660    2.46504499713784   10.02977027104909
H         4.52168452585086    1.60214791699462    9.81334143316801
H         5.11402060924175    2.62413072603455   11.10416190963840
H         6.16624552649028    2.20873642216833    9.75501525564404
C         3.04769450525321    4.73168225634422   10.04589095380626
H         2.69347692458375    5.64995096024196    9.59140028740588
H         3.29279788126033    4.94608626368492   11.08115122857027
H         2.22507973453493    4.02330356323259   10.04224592031993

