64
CSD_code = IDIHIP | q = 0 | S = 0 | Stoichiometry = C23H35N3Si2Zn | MND = 3
Zn        7.90134304709406    3.38604861700774    7.23074531536054
Si        8.46930571933296    1.67660687457216    9.71591464426014
Si        5.83788274415029    1.34192892222376    8.17558544103399
N         8.08766051154364    5.30300212881132    7.44672443462250
N         8.39216222299826    3.25876666326906    5.36316499042579
N         7.39107343975140    2.04538947822106    8.42389972916675
C         6.71803078538960    5.50013002403730    9.41536993703807
H         5.94284052080693    4.95991191324289    8.89019829733583
C         6.53359833457369    5.90393728387043   10.72342448931145
H         5.60243305145333    5.68495953041582   11.22460820133467
C         7.53896706289081    6.58052809617961   11.39570731708058
H         7.39451288569607    6.89140870870918   12.41939931750509
C         8.73681742303449    6.84113127621297   10.75168172881355
H         9.53236587437663    7.35121360327463   11.27514010265049
C         8.92618131820911    6.44817042143350    9.44008964308398
H         9.87103867920565    6.63012518922520    8.94942230905141
C         7.91197185513602    5.78104081094768    8.75367080750583
C         8.45900073612112    6.08409162880045    6.44822001313931
C         8.76818540339946    5.61255414822153    5.17320068631067
H         9.07015610283279    6.37516651521368    4.46916581547210
C         8.74838843104164    4.31645908991629    4.65826546975605
C         8.23270628652217    1.98575558641867    4.80076180859618
C         7.40739226664325    1.75602493487787    3.69989702953066
H         6.89322939195795    2.58506301416458    3.23624727098472
C         7.21487463375560    0.46987594215576    3.23105119563309
H         6.56681557554545    0.30383691654354    2.38268034308165
C         7.84059353820562   -0.60185725173064    3.84497021683803
H         7.68814971553774   -1.60421027948310    3.47400434137802
C         8.65092685230193   -0.38084691156278    4.94746565267520
H         9.13340828420718   -1.21350401562427    5.43809679203971
C         8.84232608065608    0.90003250822282    5.42722139863227
H         9.45982688806867    1.07900390523658    6.29611948667601
C         8.53179224434907    7.58065273862314    6.63147577551176
H         8.17234941283492    8.07986963807511    5.73471656238023
H         9.56255514776752    7.89207919511580    6.79493631967208
H         7.93554296089625    7.90249642840131    7.48157989395009
C         9.20714240559419    4.17074773331404    3.22771331634973
H         8.40611704838227    4.44590573325125    2.54300788500074
H         9.50959725670443    3.14887134849913    3.01336730677990
H        10.04619330391446    4.83709797720873    3.04106128714471
C        10.18795192805551    2.32525063235301    9.17547256795041
H        10.73493583204050    1.58800869455120    8.59655643504379
H        10.80243142241593    2.58836619497349   10.02984931240566
H        10.08204516705322    3.22127234987785    8.55997590004438
C         8.00877228349355    2.54874120184301   11.35413977775321
H         8.08615868837781    3.62774275505949   11.26493620942455
H         8.66178616440895    2.23481060970225   12.16274435223412
H         6.99031671323490    2.31662308727862   11.64448681886644
C         8.59574117570295   -0.19658612693880   10.04885240119830
H         8.77915026096304   -0.75487385263072    9.13756989064342
H         7.67419607196480   -0.56718339931125   10.48330996505513
H         9.39950086127336   -0.41674387489730   10.74393986093334
C         4.73679974857464    1.46885839569912    9.73116839658023
H         3.72742349325995    1.12374730190548    9.53115355456745
H         4.67458809234619    2.48741255832959   10.09976943404507
H         5.14168858125450    0.85562399611603   10.52873102392674
C         5.89848344124378   -0.48529315131205    7.62324886789728
H         4.91247223302026   -0.83672434983875    7.33530220207346
H         6.25540594591495   -1.12536170786869    8.42155536036625
H         6.55853757901398   -0.61634942553999    6.77168249534637
C         5.04047435570595    2.33003014408603    6.74361942072372
H         5.34670255772866    1.92144568120330    5.78548166167858
H         5.34245442233935    3.37850391286346    6.76936150391843
H         3.95642753775061    2.30171230696746    6.77882001423054

