76
CSD_code = IDIHEL | q = 0 | S = 0 | Stoichiometry = C29H41N3Si2Zn | MND = 3
Zn        2.91302660352866    6.20708559262391   18.94992911902925
Si        4.86185966103773    8.60196820000778   18.88686074880584
Si        3.32501638990828    7.76321377924296   16.36392764856417
N         1.96480096333969    5.82722579141079   20.61292792855490
N         2.79794547343320    4.27872874772127   18.68508539787742
N         3.73707474723400    7.60901774291635   18.03304143822488
C         1.33027422130798    8.06234477278562   21.16796181902291
H         1.19186491784221    8.23916773859606   20.10842497904792
C         1.13843912142099    9.07405467168092   22.08713137039080
H         0.83114065543662   10.05322488063116   21.74992406391584
C         1.34288596770553    8.83932736626519   23.43776273263063
H         1.19519773920934    9.63155384061515   24.15595078286673
C         1.75406055863524    7.58568047475997   23.85890020916110
H         1.93678716885370    7.40090410889205   24.90749763278163
C         1.93995866353069    6.56433328975228   22.94721551709699
H         2.28843995889966    5.59609926391854   23.27736991321170
C         1.71611276397969    6.78845112406468   21.58652220880205
C         1.62822874513805    4.54358174962569   20.72438368776711
C         0.67982741058008    4.12884920718030   21.67247135576222
H         0.20035576057089    4.95387791841003   22.18748115745232
C         0.24058150945922    2.87574820435265   22.04916916020657
H        -0.53832744464180    2.87176319126241   22.80249379966689
C         0.69067258835489    1.63144653773778   21.64188873947705
H         0.26806003921276    0.77148075284537   22.14369592031941
C         1.62232884471199    1.37703030711253   20.64553554517362
H         1.87353841062527    0.33413593986557   20.49144709504174
C         2.22920123508821    2.25823703974046   19.77947917282730
H         2.86984400045451    1.80420601218094   19.03093320406269
C         2.19799722121059    3.66479555399729   19.69324963935194
C         3.21954471248939    3.59722834918066   17.53400634574488
C         4.57907585162809    3.61717818361216   17.19730489359426
C         4.99210976853040    2.99856681917145   16.02713677323680
H         6.04129592963205    3.00552669137277   15.76834129265263
C         4.08065254851728    2.37773534321609   15.19444447120575
H         4.41429004947355    1.89436509049405   14.28837557606225
C         2.73647018428122    2.38513654306150   15.51883853851964
H         2.03396358738987    1.90749820373806   14.85463159736222
C         2.28077361943531    2.99498538702057   16.67825929953602
C         5.58637736333025    4.27634868518391   18.09617275233607
H         6.50714045419676    4.44583537818063   17.53420374252305
H         5.20490856609956    5.25202700852140   18.42097935965880
C         5.90215074828780    3.42090734108692   19.32431000081348
H         6.65732547773190    3.90653595655618   19.93817005541532
H         6.27850884777830    2.44574611851425   19.01991183832115
H         5.01235652227291    3.27215230368534   19.93115941204209
C         0.81300816570954    3.03737581999474   17.02039714501662
H         0.61842755333134    3.94620700010512   17.59785541370574
H         0.57098587518057    2.19012810784645   17.67199572148524
C        -0.11978823675292    3.02181059833545   15.81304080351919
H        -1.13887333665576    3.22013405929996   16.13813134011671
H        -0.11187119135581    2.05652802731080   15.31322697114789
H         0.16847319078598    3.78932900512938   15.09841822170924
C         5.42053608761762    7.61616076066561   20.42749309187517
H         5.79133619021138    8.27563305836964   21.20497679423863
H         6.21369345722226    6.91433903399224   20.19027352878040
H         4.58997397042308    7.05192245983104   20.85059424294877
C         4.06556635141228   10.23467233010626   19.48390593789640
H         4.80932411725435   10.89837099783236   19.91384022066755
H         3.31081578500420   10.05078321520016   20.24216888369994
H         3.59023074020535   10.75976692368168   18.66273165564796
C         6.40482093344780    9.00849963171580   17.84313255832240
H         7.12355653994982    9.58009556672532   18.42119607760698
H         6.13793439416329    9.59724376010125   16.97313500057658
H         6.90019360958854    8.10922520204850   17.49328581361832
C         1.71457991825063    6.75833449538737   16.13337630423554
H         1.11206874437948    7.12949516929048   15.31100571471252
H         1.09784787744012    6.79555942472411   17.03268973881994
H         1.94488528852986    5.71814786065248   15.92577617200195
C         4.64336253525286    7.00146690403257   15.20898795478308
H         4.33174050130914    7.05545406519067   14.17052097755511
H         4.81584456098685    5.95622391885034   15.44744252811987
H         5.58966443595021    7.52308155823824   15.29651831582328
C         3.01649437437907    9.57632699334734   15.86052602145127
H         2.76044804068399    9.64874180541596   14.80855143402507
H         3.90377117291403   10.17634219337749   16.02619512544409
H         2.20711022635905   10.02049285053328   16.43010235449857

