139
CSD_code = IDIKEM | q = 0 | S = 0 | Stoichiometry = C64H66Br2NiO4P2 | MND = 4
Br        3.46640039705528    4.36588074846383   13.93997381253299
Br        1.33746004629464    1.84864322353230   16.32887526985768
Ni        2.72913668969396    2.24425665262396   14.56084286293630
P         4.11958877939670    0.46422897505635   14.09964441872095
P         1.28834931011149    2.43368213835098   13.04171294547887
O         2.11752078610675   -5.13985904814524   13.49282743301190
O        -0.70055721686275   -3.07009467790948   14.24705424772018
O        -2.58167663461817   -2.00302171012774   11.94365606312516
O         0.39961650998598   -3.31800770232805   11.17282203276413
C         2.33366458433957   -3.12583153593072   14.79660917406387
C         1.59063562965263   -3.72325874868358   15.96760495312463
H         1.20187713419632   -4.70588511137286   15.70066003488023
H         2.27590408013400   -3.84448344432942   16.81228281592817
C         0.48976778777973   -2.76926232258734   16.35906583446038
C         0.55690362357524   -2.08035221002244   17.56344755632753
H         1.34402105810490   -2.32153622204553   18.26451955020839
C        -0.34394164816936   -1.07774163559623   17.86723489484730
H        -0.26777123682497   -0.54676299876543   18.80243832273556
C        -1.30345723002968   -0.71267016555823   16.94031229445548
H        -1.96762237455064    0.11177368392825   17.15120702952803
C        -1.40683448735705   -1.39224713153770   15.73917877872955
C        -2.37138649807468   -0.97699422577298   14.65686027900065
H        -3.04053639256238   -0.20018225224516   15.03408283015470
H        -2.95687804596844   -1.83667616130586   14.32920961519124
C        -1.56608272764662   -0.45671332281262   13.49247149218650
C        -0.64216479942889    0.54893328282542   13.72548038723366
H        -0.57120470493798    0.96330959677698   14.72109921375983
C         0.19102715676080    1.01018044450534   12.71627649779423
C         0.10093826161087    0.43751134184603   11.45474613126297
H         0.73702758926277    0.77097196613887   10.64855244930493
C        -0.80973854850660   -0.57332929210103   11.19549823824224
C        -0.80391782153722   -1.20974391575352    9.82549057321268
H        -1.46628945915850   -2.07475355572505    9.84100124440142
H        -1.15603412511943   -0.49690758090781    9.07495969320595
C         0.60707010046146   -1.63058926608210    9.51073078680421
C         1.37970834973835   -0.96611229765296    8.57057546930701
H         0.93831833238779   -0.17738420075287    7.97741188474921
C         2.70702724123948   -1.30755489940335    8.38311659476705
H         3.29355946154231   -0.80175698987941    7.63048510415021
C         3.29227279013488   -2.26670147327394    9.19013641863078
H         4.34621899422626   -2.48575209860040    9.08526665668819
C         2.54934762838966   -2.94391514599086   10.14702700131849
C         3.22157577560311   -3.84889727806164   11.15036056691171
H         4.27142636934467   -3.98011422656741   10.87262791645524
H         2.74840795905721   -4.82898162861206   11.19734916917010
C         3.12475858107615   -3.18673494393966   12.50533264737185
C         3.60840328726578   -1.89621389175736   12.65112341081203
H         4.08604283858429   -1.41878534336557   11.80538487230211
C         3.50353785610568   -1.22907575755850   13.86332412889841
C         2.81240817291627   -1.83066722248062   14.90752912036016
H         2.65161622764599   -1.28827059701414   15.83080636296364
C         2.52542698122311   -3.81804955731909   13.59791812497980
C         1.18459741778912   -2.65664582616527   10.26559240961262
C        -1.66061359474643   -1.01265153270671   12.21263110742442
C        -0.53224523462424   -2.44960364171907   15.46183114118226
C         4.99471440109458    0.33912716487972   15.70325553457542
C         5.15689092373596    1.52662488847045   16.41081850686890
H         4.75427432525163    2.45746273140934   16.01519879461920
C         5.82493548808149    1.54085546603872   17.62037475008063
H         5.93667674301860    2.46727193374406   18.16370040467051
C         6.34080845110669    0.36222825932604   18.13107635301680
H         6.86068452101075    0.36531197061549   19.07773935466749
C         6.18516016035828   -0.82389515594484   17.43101728575601
H         6.58623470519788   -1.74366793683602   17.83273777322120
C         5.51616043284676   -0.84075117021160   16.22154351846482
H         5.38484807191299   -1.77253170834093   15.68919685064739
C         5.59013940584925    0.52678334470730   13.01310205951846
C         6.44649076039799   -0.55974858723907   12.86569666969127
H         6.23424152556275   -1.48883278369450   13.37543651443777
C         7.56588629484667   -0.45213379714030   12.06331492964012
H         8.22707076497258   -1.29945978548132   11.94877659664189
C         7.84622612379593    0.73874233636166   11.41040657456184
H         8.72324614644199    0.81578285639329   10.78440435309057
C         7.00711308259993    1.82754685532141   11.56844353173654
H         7.22394114021991    2.76126399445427   11.07140558192180
C         5.88353274884175    1.72298851282105   12.36906635706401
H         5.23527711301087    2.57961753465545   12.49261256251328
C         2.15253608928244    2.66066502201982   11.45738846859644
C         2.12436333595093    3.86230835020368   10.76052428518808
H         1.54301014585297    4.69170391980467   11.13675624489913
C         2.86500667050818    3.99860837752220    9.59998809619231
H         2.84280486664303    4.93406175084958    9.06149793188356
C         3.64420353242312    2.94979296671970    9.13873692110060
H         4.22827142132573    3.06718623478433    8.23811173201861
C         3.68706841303428    1.75584825190197    9.84026555582409
H         4.30372427015834    0.93941878218448    9.49557842577666
C         2.94552054027193    1.61200050722476   10.99682697493183
H         2.97490042224648    0.68161088791588   11.55275004613191
C         0.06654878008415    3.77180190482360   13.17440020930558
C         0.02280519376795    4.62249608607692   14.27001422568968
H         0.73799703135646    4.51395311105792   15.07426921360668
C        -0.94037731735760    5.61444442556328   14.33247884691590
H        -0.97016434783336    6.27659037910340   15.18407611882154
C        -1.85845147890283    5.75552314408096   13.30656178616249
H        -2.60709405775150    6.53238953321874   13.35386342922537
C        -1.82295900415929    4.89795275939997   12.21686446065527
H        -2.54252275364493    5.00604821670805   11.41834723256596
C        -0.86836960175076    3.90230940409126   12.14942607290864
H        -0.83695192100406    3.22411495152004   11.30681317596066
C         3.11558905127618   -6.06354011284675   13.89492636357534
H         3.43582058126900   -5.84324611964990   14.92452242211733
H         3.99662153697541   -5.97380586749140   13.24140569322732
C         2.54294667256586   -7.47468986807982   13.81675683412161
H         3.25767404123525   -8.15976696591043   14.27636548231391
H         1.61845999339796   -7.50608148922300   14.39625092241155
C         2.26056686196653   -7.90082333293012   12.38158837157957
H         1.84236325316935   -8.90419476757665   12.35956998033495
H         3.17742332147404   -7.89639944637565   11.79550642873633
H         1.54957503490678   -7.21961133511830   11.92160675352241
C         0.12404914807601   -4.67980957249607   10.88764824333130
H         0.25972643680703   -5.22698428974088   11.82490415664018
H         0.82048656371310   -5.07393948449837   10.13665158025627
C        -1.31338454190483   -4.85558919868429   10.38894670456625
H        -1.39004485269694   -4.47956623251235    9.36523371211060
H        -1.96255497776593   -4.24983422395031   11.02321822048026
C        -1.74147731364412   -6.31647787289675   10.43202504868690
H        -2.76364026790616   -6.42470124939485   10.07704153176094
H        -1.68786666335480   -6.70009229655493   11.44881069118744
H        -1.09461941218847   -6.92494417554557    9.80265274203688
C        -3.87335718705430   -1.51490963585293   11.62026955810694
H        -3.81976718895759   -0.88657478097008   10.71735097188262
H        -4.26433349251740   -0.89407890809273   12.43947204323804
C        -4.79262977850602   -2.70735788602990   11.37562441422273
H        -5.75839543402998   -2.33350284675276   11.03077121329697
H        -4.36068060025031   -3.32192432567356   10.58381410671884
C        -4.97050169656273   -3.54823854936887   12.63358985098518
H        -5.59040119602819   -4.41734204234719   12.42707314885468
H        -5.44537065640586   -2.96444720111886   13.41965510015602
H        -4.00117127445507   -3.88762096985926   12.98819344984847
C        -1.06682680076933   -4.43744840471847   14.23063766250780
H        -0.17722388778147   -5.08031579686929   14.22552553731766
H        -1.57172247562638   -4.55613163649752   13.26847563388514
C        -2.00554861892235   -4.86073147536244   15.36021825862727
H        -2.86535709033793   -4.18716270145677   15.38673132652632
H        -1.49071768232580   -4.77251091366630   16.32012584107332
C        -2.48032437757089   -6.29419124492253   15.16043339821312
H        -3.13278908626743   -6.59537229947679   15.97624566044962
H        -1.63339566883123   -6.97676207308835   15.12851841681947
H        -3.03093484290952   -6.38929356108154   14.22681834725016

