32
CSD_code = IDIMIT | q = -1 | S = 0 | Stoichiometry = C12H14Cl2NO2Pd(1-) | MND = 4
Pd       -0.38837677099184    2.57455897664468   10.37253931395176
Cl        0.09769590033249    4.75242277023773   10.05511507583141
Cl       -1.46156610582659    2.93554625815195   12.30335873739030
O        -0.83054497713351    0.53221203947670   10.25625404728214
O        -0.25302211266915   -1.30154669154516    9.14975884646983
N         0.50349551010923    2.11377375511414    8.54837642710730
H         1.29846549479993    2.72992547557237    8.35174638988803
C        -0.40752117388554    2.15252791329550    7.40680341635536
H        -0.59465077767454    3.18368940039266    7.09711635638620
H        -1.35657876549356    1.68434284162143    7.69769420561903
C         0.29135408000334    1.29867467535045    6.33668680964638
H        -0.41937520103299    0.86509566822760    5.63539448752431
H         0.99696986878493    1.91287838283052    5.77201719060479
C         1.03519814759799    0.23315325902238    7.15639581386406
H         2.07295981554764    0.13123645584250    6.83226827048321
H         0.55957197066711   -0.74686229231600    7.08993573536359
C         0.94611702648031    0.71532928454522    8.62001343175607
C        -0.15761687372435   -0.10905648475705    9.41238167081193
C         2.27783559333056    0.58134067168017    9.37998117284560
H         2.55403545394473   -0.47583460577600    9.37550961987275
H         3.05421633718666    1.15164667991528    8.85401220431242
C         2.12987839665981    1.07762672850218   10.79507499606598
C         2.37579971767286    2.41753846078617   11.11053585906168
H         2.80187463457274    3.08502284855903   10.36767185013848
C         2.11504036538290    2.89833811971358   12.38843778886998
H         2.29539879879513    3.93983462411849   12.61361769190457
C         1.60633370463067    2.04850906091321   13.35857370107571
H         1.36708552118768    2.43049665560397   14.33953350703284
C         1.39650586698115    0.71182408858316   13.06240420069122
H         1.00219247175763    0.04650586656482   13.81656732557356
C         1.66081325549272    0.22701474001731   11.79270978377578
H         1.47261482651155   -0.81166562688864   11.55931407244371

