49
CSD_code = IDIQES | q = 0 | S = 0 | Stoichiometry = C17H24IN4O2Rh | MND = 6
I         2.92601094519300    1.79913882680001    4.14233983005794
Rh        1.50394497271813    3.21123611394851    2.43987937953267
O         7.35870920658356    1.27695446186621   -2.05690689215923
O         3.42060358099944   -0.92001311241528   -1.47899572716131
N         5.39993326356632    0.19799994804335   -1.73947208742917
N         5.87416329135707    2.24865137687581   -0.64483438132749
N         2.64870312071914    1.33527469142345    0.42501374784716
N         4.00355761806418    3.00028897438989    0.80590983891529
C         5.88237375038007   -0.82883616108017   -2.64958783564234
C         6.27732857785246    1.23568043442064   -1.51512217777385
C         6.80836544483450    3.33217667118142   -0.41249399415073
C         4.64548080412109    2.16385594945097   -0.06135584663967
C         3.79149204945151    1.11174335504881   -0.31568173745888
C         4.12008834084098    0.03028089829688   -1.19723726259226
C         1.54735406281197    0.41793662194072    0.53679892039259
C         2.76993064766115    2.48071539879068    1.10431005198626
C         4.49375711354220    4.18145535154203    1.47588911497499
C         0.79051845760176    4.79920287649218    1.20050930352343
C         0.05267790151322    3.63842358361869    0.95155830501182
C        -1.34300459420070    3.37678912868138    1.46768577165170
C        -1.50919820894001    3.68328716656353    2.96802388470759
C        -0.22744746850075    3.47381647201890    3.74255666268224
C         0.68277783006342    4.47792800764023    3.99311868781418
C         0.57037640534351    5.89564962506096    3.48128304377040
C         0.24498647000829    5.97932208900915    1.97757032600315
H         5.10550676630160   -1.58546047549457   -2.72941276923149
H         6.80145094683756   -1.26455770502431   -2.25963721568935
H         6.09012804284572   -0.39072660579562   -3.62534685449349
H         7.69299781188513    3.11486157975099   -1.01045089851062
H         7.09270764781144    3.38089321053345    0.63715912426824
H         6.38606362988693    4.28274203118113   -0.73598192765029
H         0.97148874328838    0.39090922014562   -0.38954311180573
H         0.91241482813813    0.74515712796455    1.36744467882430
H         1.92596629539761   -0.58413296251154    0.73617811615003
H         3.69136428730539    4.52414384886985    2.14421729600513
H         4.73266643856016    4.97509886698331    0.76878499843539
H         5.36549205710954    3.94703888859185    2.08643092666298
H         1.54906234720391    5.06497332303018    0.46234084325818
H         0.26771351900175    3.10348573069816    0.02491509871576
H        -2.05911351835427    3.96507170297206    0.88238115868229
H        -1.57669104072590    2.32280633418456    1.29149595763804
H        -2.28128378963816    3.02824015133411    3.37676787260005
H        -1.84902099052110    4.71005032905391    3.11284853867129
H        -0.23348784698171    2.61153771746394    4.41064302666813
H         1.32323743826246    4.38539773837990    4.87076103464956
H        -0.19272280425883    6.42613814595874    4.06120814853289
H         1.52227159933056    6.40114019620614    3.66872363225411
H         0.67559242661806    6.89963624966360    1.57649085389071
H        -0.83368841896911    6.03739660631196    1.82342254489306

