50
CSD_code = IDIRAQ | q = 1 | S = 0 | Stoichiometry = C19H22CoN4O4(1+) | MND = 6
Co       -2.85059531644930    2.14468946529043   13.45229681016899
O        -1.36345573105772    2.38154717953443   14.54209433706061
O        -0.08637703581727    1.42420144188715   16.07414674367454
O        -4.30621953679714    1.83053880391789   12.33978411395820
O        -4.91902843180106    1.12806457997280   10.33350143609805
N        -3.88052042950788    2.70778702269443   14.96033929566907
N        -3.04440267431259    0.35090377214487   14.27267834894300
N        -2.70105359278707    3.82527060042105   12.55331545844254
N        -1.70241051476930    1.50217532191560   11.96862822338572
C        -3.85814097076004    3.89714111050352   15.55919117634267
H        -3.22125292642799    4.65368487324914   15.12563723407545
C        -4.58398321159572    4.16089695289162   16.70695079733262
H        -4.53608788805249    5.13838990526581   17.15796937447606
C        -5.35813017028208    3.15250896942733   17.26105876519961
H        -5.94399113574470    3.32868796017338   18.14923350756409
C        -5.33572771373829    1.90100837936208   16.66763411070712
H        -5.89214006495591    1.07671996889842   17.08463025841411
C        -4.57348637145394    1.71229748752921   15.52514101502077
C        -4.40980119893375    0.39517287050888   14.83632862486440
H        -4.58736925702557   -0.44736466749005   15.51377599736096
H        -5.13230180528303    0.34365332998505   14.01434188032519
C        -2.04213415034140    0.23034776026732   15.35260112942932
H        -1.46021935474352   -0.68714215162840   15.26013201020268
H        -2.51818890962942    0.21919368388870   16.33568598494125
C        -1.05171503800732    1.43676539327140   15.35568624350155
C        -2.97445505717988   -0.77797760498123   13.32890052354754
H        -3.76063436123569   -0.62779349979097   12.58540464886596
H        -3.20510415571324   -1.70661856764991   13.86591410282426
C        -1.63139776404056   -0.95861530080240   12.61115677994795
H        -1.83891303996309   -1.52155574068023   11.69966005194075
H        -0.95874155990496   -1.57701606160773   13.20765816504500
C        -0.86727371365096    0.33071373190266   12.28538692049983
H        -0.24069035138429    0.60036678388310   13.13863035493205
H        -0.19846777125502    0.13031473521505   11.43897451105611
C        -3.58239340021654    4.82373366309794   12.54926904567252
H        -4.46556820652584    4.70221982371307   13.15849930236428
C        -3.40996011302329    5.95924904113977   11.77818641297429
H        -4.14928921672917    6.74271122270228   11.80606144435500
C        -2.28485289749588    6.06309163296898   10.97413515976938
H        -2.11563825834762    6.93955636104481   10.36890643273626
C        -1.39820334368444    4.99940610293023   10.93854807199835
H        -0.52925003855297    5.01963468311218   10.30024260621793
C        -1.64677899646664    3.89017945777881   11.73211336205477
C        -0.80707948163413    2.65295856868343   11.72765655197009
H        -0.08973479425538    2.72013388932059   12.55305606115340
H        -0.25343660218767    2.53584890636876   10.78952661130743
C        -2.56522918569172    1.26263084514390   10.79229448467477
H        -2.41148674696390    0.26531307276834   10.37910987958530
H        -2.36042391331925    1.98206664325002    9.99630201900123
C        -4.07816360030365    1.41080759660632   11.14662361834667

