97
CSD_code = IDOBOS | q = 0 | S = 0 | Stoichiometry = C30H54N4O8Pd | MND = 4
Pd        7.91178595348819    6.00200570021002    4.97473122779267
C         9.09230910521892    7.59141609335260    5.36724819474464
N        10.38549916936289    7.78385818984574    5.05281304900746
C        10.78522484603070    9.05422263594144    5.41730592114487
C        12.16607275965267    9.56132798159813    5.19480958715274
H        12.88964171055706    8.98071593572260    5.76819136799276
H        12.43823317437406    9.50101741697431    4.14158295711059
H        12.23449978529517   10.59900668267648    5.50892577639314
C         9.70334669408319    9.65264828980650    5.99072104175084
N         8.67693628244863    8.73489903863577    5.93870804313993
O         8.04970187666771    5.37264472124026    6.96154681292259
C         9.53072515389083   11.01717889934178    6.55675311800318
H         8.87968561929085   11.61613962908324    5.91883384534291
H         9.08118702283760   10.97309506173215    7.54705286167668
H        10.49251019922637   11.51710712565460    6.63190337918304
C        11.20692202854961    6.79763922825079    4.39486882385849
H        10.87457056568005    5.80405899772807    4.72254048910323
H        12.24592302824208    6.94625178808524    4.69875340306473
C        11.08058227654884    6.90157320780270    2.86898939901555
H        10.14584165879882    6.42936044044613    2.56364423646018
H        11.04773202424414    7.95233496817654    2.56993557198157
C        12.26442749500029    6.24977190233848    2.16628007614587
H        12.13650592611070    6.31253015660539    1.07299655999172
H        13.19504028530149    6.78484415806349    2.42480953732224
O        12.37663338322653    4.90287616979050    2.56124405362656
C        13.50464078386768    4.26600310838992    2.02844522305893
H        13.46233697585774    4.22369937353486    0.93147828476336
H        13.51495195139825    3.25560594724364    2.43241323298805
H        14.42965248233809    4.78038699520976    2.32035611275495
O         9.82474266718398    4.39809444177240    6.08618567381975
C         7.36787819462276    8.89367410802283    6.52338456935523
H         6.66208921078033    8.28000972666145    5.94167892487212
H         7.07080744184143    9.94268714531917    6.47341752820012
C         7.37686540219074    8.42500942082055    7.98274566329905
H         8.19617624885347    8.90589821924811    8.52257264480907
H         7.52798149948859    7.34445621996432    8.00455612137993
C         6.06811234818062    8.78070669911627    8.67030304672275
H         5.22080451398345    8.42988102252823    8.06678667731783
H         6.01459384349966    8.30237074656807    9.66136243523323
O         6.01262554191164   10.18944894002741    8.82465009092268
C         9.08253429708002    4.64759571621556    7.03915343078899
C         9.38898324412926    4.07416916720951    8.42150656053066
H         8.51992942263282    3.53630880237122    8.79220896271273
H         9.60481389108263    4.89080652892849    9.10670996356209
H        10.24401893401413    3.40806097218636    8.36287929195539
C         4.80121223948878   10.63272134970573    9.36786101839272
H         3.95455613855769   10.36488116276878    8.72363726271257
H         4.62941572851561   10.20515887485193   10.36495905835435
H         4.86840975450817   11.71639142969777    9.44809689156020
C         6.73205378625716    4.41188271282341    4.58257529270797
N         5.43867561512040    4.21980986362212    4.89643742537745
C         5.03853056256107    2.94984171295573    4.53106584873221
C         3.65742610867684    2.44317273904223    4.75294449128899
H         2.93421119868028    3.02444171483661    4.17978148333632
H         3.38508643909419    2.50293888399448    5.80615611563618
H         3.58864811459268    1.40571841177693    4.43817419716642
C         6.12030090520401    2.35132466461856    3.95754109878495
N         7.14708245303560    3.26862047168120    4.01039680480050
C         8.45624135600839    3.10961678703931    3.42601621956024
H         9.16205116458482    3.72295578038964    4.00804886381014
H         8.75297899036366    2.06049875833379    3.47585108680033
C         8.44790096048515    3.57852347143533    1.96672006072447
H         7.62849370514409    3.09816739946284    1.42656506434687
H         8.29736116802007    4.65915717184090    1.94502216560307
C         9.75668236597225    3.22218817184692    1.27953875238540
H        10.60395822890680    3.57279181084305    1.88322517209222
H         9.81066215324646    3.70030835677487    0.28839989533745
O         9.81165239725152    1.81339013594195    1.12549988267326
C        11.02332563182618    1.36942313843301    0.58343186653866
H        11.86954900367924    1.63704093926813    1.22831811615432
H        11.19617665246163    1.79663743668255   -0.41363091396993
H        10.95569486975617    0.28576210799236    0.50342491427230
C         6.29241663696807    0.98709114348479    3.39062701416103
H         6.94225712579768    0.38707871805735    4.02878473848128
H         6.74307205646565    1.03158343008097    2.40085769662223
H         5.33029850533825    0.48801491768407    3.31402748681654
C         4.61748736401516    5.20602251840595    5.55469510769046
H         4.95001872220693    6.19962181713296    5.22727620117118
H         3.57843969466955    5.05774025657346    5.25082769921426
C         4.74395120935766    5.10155840752302    7.08052992803583
H         5.67861813096012    5.57383025685495    7.38601993887440
H         4.77702893434994    4.05068235923178    7.37915720541730
C         3.56004827708874    5.75285099338490    7.78359809735298
H         3.68796996580513    5.68944746689771    8.87684385079810
H         2.62947394574736    5.21787027844453    7.52474038610278
O         3.44774683747771    7.09998186891746    7.38946103666683
C         2.31998139359922    7.73656582442923    7.92311559921915
H         2.36266744743614    7.77800755306796    9.02010061555599
H         2.30964712686713    8.74727795289891    7.51993739601288
H         1.39481389326498    7.22251299314476    7.63111579417579
O         7.77496314620078    6.63039768429028    2.98771792552214
C         6.74240632960161    7.35583706731827    2.91033315722127
O         6.00002493212515    7.60489853076591    3.86327118871457
C         6.43592444481908    7.92925809196718    1.52799919914050
H         7.30486460963566    8.46762984414769    1.15771431784641
H         6.22072156768430    7.11262442686675    0.84255408037457
H         5.58054309146279    8.59495241933053    1.58655243067069

