70
CSD_code = IDODUA | q = 0 | S = 0 | Stoichiometry = C30H30MnN3O6 | MND = 6
Mn        0.55348373260647   -1.35417711379537    4.52147802864327
O         1.50602957314405   -1.64841545580282    6.10953057002724
C         1.61006940634382   -1.06341894707719    7.24756484204913
C         0.55926744473376   -0.26634144168717    7.80032967115264
C         0.68504685991899    0.27529026758230    9.08881553207338
C         1.81768398542014    0.08630157823405    9.84456580676832
C         2.86071001889452   -0.67671272452945    9.29651445487344
C         2.76536512125255   -1.23618372370049    8.05084125029556
C         1.95847565014710    0.67187465867249   11.21813622384605
N        -0.82044385942962   -0.39186913634431    5.79711754562652
C        -0.62841759126327   -0.04679050229029    7.03256131455722
O        -1.67100505550324    0.58341341132634    7.62869939487064
C        -2.71897127856848    0.69325163304346    6.67686345353540
C        -2.17325905838458   -0.01102727298567    5.41837307824624
O        -0.59358849538406   -0.89267929369661    3.11401447049255
C        -1.44080803054176   -1.59935152784287    2.42992968384443
C        -1.86560792378755   -2.90994816740428    2.78432230122375
C        -2.80204159605694   -3.58643083798663    1.99370158548944
C        -3.33718450085424   -3.01996618104369    0.85683919244507
C        -2.92001558623253   -1.73269890942245    0.50227032493014
C        -2.00943322071061   -1.04228238914085    1.26213520286617
C        -4.33566404388774   -3.75000590623088    0.00958996896630
N        -0.48126672475261   -3.03107906892855    4.77944145966988
C        -1.32837447650797   -3.54665036070617    3.95721572641329
O        -1.75912376902608   -4.79430251647589    4.26431140114612
C        -1.07713154916491   -5.20837184842579    5.44182996832109
C        -0.20370820887381   -3.99828301866861    5.82671836214692
O         1.70870392970880   -2.35230880305798    3.46461073180986
C         2.74100577485177   -2.03120989217407    2.76253339380357
C         3.28280478893420   -0.71478481194015    2.68771062760883
C         4.41043074977016   -0.45973853075759    1.89358165776254
C         5.02429226698347   -1.45411493266519    1.16746346148103
C         4.49603155955742   -2.75119352956861    1.23812786294467
C         3.39797725265446   -3.03336435032464    2.00603173917831
C         6.22571180891993   -1.17999637018509    0.31369746930819
N         1.62301221215092    0.25828583028734    4.18023497400439
C         2.66931335456239    0.34977758743555    3.42275462793758
O         3.21974504286395    1.58680189307640    3.33215279305358
C         2.44619700341576    2.46728225952999    4.13226119286526
C         1.33452707000024    1.57724703093146    4.72066959831564
H        -0.13905741422970    0.85760079004805    9.47420301714478
H         3.75825986755309   -0.82771480906353    9.88045983417627
H         3.57140168898299   -1.82630475639241    7.64066669460654
H        -3.61151164919792    0.21016672636239    7.08374406687405
H        -2.93004513493176    1.75455256105809    6.51256447510405
H        -2.75072112726838   -0.90260799088446    5.15244609926400
H        -2.14202492344902    0.64410771027075    4.54375327117516
H         1.05704462084020    1.20755211515708   11.50399539066223
H         2.14333392548127   -0.11335667129937   11.95047025810975
H         2.79970615512259    1.36372482321843   11.25433851900348
H        -3.09904024437593   -4.57902411141267    2.29857741286910
H        -3.32708925176981   -1.27519448303269   -0.38887040035897
H        -1.68916761065573   -0.05083963910589    0.97737591602107
H        -1.82168931218869   -5.45924566105313    6.20303597229592
H        -0.48894118966529   -6.10031855548111    5.20747319650169
H        -0.46806690473846   -3.57447268866668    6.79998095083337
H         0.86459540059078   -4.22411397241158    5.82853151544545
H        -4.57179032989150   -4.71992245651606    0.43905924899930
H        -5.25611287569852   -3.17379168715049   -0.07819707415585
H        -3.94223130861125   -3.90185645736699   -0.99500588236050
H         4.78944386498984    0.55114681432363    1.86313250886147
H         4.96971122443886   -3.54090824354512    0.67125151241922
H         2.99482204550817   -4.03423158938761    2.05355863585899
H         3.09394583467464    2.90053899829908    4.90043226219599
H         2.05976361501322    3.26802131941306    3.49457868187142
H         1.36108378748843    1.54528670785725    5.81300975634846
H         0.33685998236505    1.88811723605976    4.40098687297056
H         6.01618026665830   -1.42570454634347   -0.72700588023042
H         6.51196317380393   -0.13327231402064    0.37240724553511
H         7.06893418526284   -1.79046375419933    0.63530497737997

