101
CSD_code = IDOQEX | q = 0 | S = 0 | Stoichiometry = C36H54ClMoN3O6 | MND = 4
Mo       -2.11621476405681    1.16803213130466    4.15096959875546
N        -3.04064598289474    1.18752494457604    5.82946340700230
C        -3.91896076291396    2.24748906078677    6.32955919418348
C        -5.20802805604220    1.66140580871932    6.92929578431663
H        -4.97152627554165    1.02144570445650    7.77605749221750
H        -5.74497563241004    1.06903508347004    6.19198167456579
H        -5.85781448948777    2.46472558796674    7.26974749289824
C        -4.26785573656001    3.15797891417111    5.15116940846576
H        -4.98950928471300    3.91516080212356    5.45617606749155
H        -4.70014373506662    2.56276557025122    4.34847342211784
H        -3.36598447759000    3.66292548568847    4.79542268672676
C        -3.22544345764246    3.10320465976773    7.40478826568720
H        -3.07054631190623    2.53102206164945    8.31539620416373
H        -3.84673874565550    3.96548296782216    7.63938782467152
H        -2.26347119070250    3.45899027451687    7.03700849285728
N        -0.71957320482936   -0.11029531590052    3.84941408941115
C         0.31910982429655   -0.02319049536333    2.81981152838309
C        -0.12244307126780    1.02379747052101    1.79561686924127
H        -1.10146230883389    0.75417108496556    1.40417288319047
H         0.58707452923652    1.06831290917523    0.96984737698533
H        -0.16884660171297    2.00965536108057    2.26490426105818
C         1.66742350722203    0.42341925787652    3.41323716391786
H         1.53584603352449    1.33605686381688    3.99407393682716
H         2.37233395068813    0.62336810731193    2.60848969582776
H         2.08347699165107   -0.35236286967627    4.05073607993311
C         0.51780252470270   -1.37495280223369    2.11449964862411
H         0.85784450078689   -2.12591623276710    2.82370523556434
H         1.26231718217188   -1.27631041002790    1.32747645903667
H        -0.41435920773445   -1.71811483015720    1.67186235475835
N        -3.40518198093464    0.85916188231565    2.73065180754854
C        -5.47065934712491    1.80390069723992    1.71278762827625
H        -5.97528921809324    0.84039075944293    1.73060897342717
H        -5.83515520808959    2.36720208406470    0.85725940542940
H        -5.73408831369436    2.35158747604881    2.61351710484368
C        -3.94411449507923    1.61473658212262    1.59341979836917
C        -3.69488769746158    0.91504585678277    0.24142382406826
H        -2.63574657677574    0.74329806098564    0.06923530731074
H        -4.06725513897253    1.54577065050909   -0.56223853574623
H        -4.21663478412835   -0.03783506029081    0.19758290537164
C        -3.27957575370213    2.99412288977519    1.55211876877997
H        -3.45030137816070    3.53437413597659    2.47827701935405
H        -3.69910409776889    3.57537485028594    0.73429708027674
H        -2.20896399449959    2.90454123623930    1.39382239657304
C        -2.70016895468527    0.20810305542482    6.76721252817474
C        -3.39170414532255   -1.00721075174843    6.77639486322706
H        -4.15031640324040   -1.16179072227596    6.02654476744650
O        -3.72988020001843   -3.16480068389517    7.84677868838294
C        -3.09818313798923   -1.95994959421911    7.73480578384003
C        -4.75909441621504   -3.45505013588144    6.93844168549264
H        -5.59193337295682   -2.75001472863063    7.03576033959045
H        -5.09901638439059   -4.45957289706342    7.18858494990949
H        -4.39816696046637   -3.43727795649524    5.90548725382489
C        -2.12709911929429   -1.71418011395287    8.70620472879867
H        -1.94752325275561   -2.48268243372322    9.43763876817653
O        -0.47677063546607   -0.16816257882960    9.59949818625726
C        -1.43234381093055   -0.51786519631731    8.69134004127679
C        -0.09934838082758   -1.11890793246464   10.56722596928506
H        -0.93766516501305   -1.37942442388217   11.22099728200925
H         0.68248779481978   -0.64300832621002   11.15767692994864
H         0.29682916543327   -2.02312493892868   10.09691434119586
C        -1.71184629204153    0.43721377951019    7.71566724314407
H        -1.14198089678012    1.35378522705163    7.70892607741249
C        -0.52190702216519   -1.11671755981741    4.80122171320707
C        -1.15490764546016   -2.34997018259173    4.64770377924876
H        -1.82242353249284   -2.47582918290104    3.81042247199772
O        -1.44523740681149   -4.62547426431290    5.46984076629939
C        -0.90305638907072   -3.37333758108758    5.55014655117557
C        -2.22867974082366   -4.93635259111198    4.34797149222110
H        -3.12895674757058   -4.31415975092091    4.29838178257036
H        -2.51522196382266   -5.98100987889200    4.46917930610466
H        -1.66572246943272   -4.81737097273235    3.41584358204444
C        -0.01401873331656   -3.17336984845440    6.59854217161868
H         0.19559330095743   -3.97876866516781    7.28145511965334
O         1.48215996325687   -1.85642134365969    7.80619779853684
C         0.60809559527977   -1.94171485135417    6.76275973599911
C         2.21254609274437   -0.66278021775477    7.97002836495580
H         2.80859777283441   -0.43354322861498    7.08072063269165
H         2.87920099019183   -0.84067600365772    8.81286658704189
H         1.55554135720600    0.17991528354740    8.20062517725846
C         0.34694585855681   -0.91008832063095    5.87189380566423
H         0.79218612456601    0.06434630194913    5.99329358867586
C        -3.95536996359961   -0.43309830876836    2.86464694658562
C        -3.46146046699428   -1.50802744833458    2.12274084648791
H        -2.60033885518311   -1.38639692187129    1.48343513747008
O        -3.51639697849919   -3.71609329493642    1.38063852844469
C        -4.08005589614122   -2.75305487605149    2.16724656945752
C        -4.17022987530349   -4.95451550473595    1.24534860802941
H        -4.20005908467371   -5.50453313431657    2.19129452253240
H        -3.58140518939071   -5.51888075984246    0.52420708305504
H        -5.18774524871114   -4.82974170799526    0.86118238185664
C        -5.20046546063395   -2.95521326580597    2.96818650724463
H        -5.68403262010778   -3.91686318756248    2.99743947317904
O        -6.77745869256130   -1.97770476647533    4.54614073459339
C        -5.68848688161117   -1.89584895802712    3.72707951811274
C        -7.53419696612281   -3.16378200908024    4.55589547081830
H        -7.92306569538534   -3.39864796440108    3.55981011781771
H        -8.36768242357092   -2.97394032820929    5.23014445883356
H        -6.95429586225467   -4.01228781098382    4.93313713781298
C        -5.07470549627751   -0.64861443016229    3.66963014836917
H        -5.50019572458663    0.16407373041312    4.23964181954242
Cl       -0.68419121703701    2.84901590038345    4.79765105287888

