93
CSD_code = IDORUO | q = 1 | S = 0 | Stoichiometry = C39H50IrNOP(1+) | MND = 6
Ir       -1.99604913524049    5.39714601689372    4.15078109948479
P        -0.93836552492600    5.93360325872406    2.13037793887532
O         1.42354078420955    3.29351469905947    5.51630576333571
N        -0.26788205710888    4.30418400608826    4.48489894847260
C         0.59324912433387    4.33922015349710    5.44763361615633
C         0.00181644376413    3.13467884201493    3.65537771089702
H        -0.90995093966811    2.53868396840209    3.54599249735695
C         1.08245121141211    2.39059787072837    4.47171847843003
H         0.71730780167598    1.46215677195323    4.91981395866741
H         1.98230935099431    2.17894710856931    3.89046536786046
C         0.78402827233494    5.41766982489453    6.40238925819972
C         0.22775892043017    6.67895161422245    6.18129958796226
H        -0.43245837011943    6.82031954127615    5.33148381379558
C         0.53807983942931    7.74222674260539    7.01474928210367
C         1.34562299871321    7.49149733072310    8.12212527693710
H         1.57607840978183    8.30282111074174    8.78736210247934
C         1.87006204434662    6.23279349208605    8.39998743032183
C         1.60525492577246    5.20366118895172    7.50732565633246
H         2.02356219117328    4.22098957909186    7.65082293706268
C         0.03236251599012    9.13665302015549    6.67090231656737
C         0.55693489320448    9.51238364453152    5.27635354610845
H         1.64260145632044    9.45253514509135    5.24969084849609
H         0.26620908207858   10.53161068771879    5.03462198697222
H         0.15940853052103    8.85553953890839    4.50663766941854
C        -1.50067913595735    9.14425481712989    6.65674079047874
H        -1.88791153486495    8.87327664407478    7.63670682876922
H        -1.88866213162805    8.45067055556756    5.91729003402056
H        -1.86234537580942   10.14035722083039    6.41327333724197
C         0.50988731617160   10.19988098106737    7.66315928095805
H         0.14338449182725    9.99760976731036    8.66669098945260
H         0.12651592934363   11.17157904123346    7.36080347441125
H         1.59521034345862   10.26254483824484    7.68163963701994
C         2.72940781655323    5.95258591283754    9.62204538433524
C         2.90754807659271    7.18099498906837   10.51769255987933
H         1.95005945454536    7.54435779269077   10.88379780444302
H         3.42130171807352    7.98277134114974    9.99248238891071
H         3.51175567191790    6.91046646236988   11.38016818449583
C         2.05820779877117    4.84803501926687   10.45119100466199
H         1.06247596116184    5.15959216825183   10.76017418681551
H         2.64580617521477    4.64542279600185   11.34284288874101
H         1.96914290413306    3.92295493776698    9.88848464068978
C         4.11722555565192    5.48764105081338    9.15892599204939
H         4.74980404808692    5.29551682691843   10.02174010464207
H         4.59011580281422    6.25630207391797    8.55117843442365
H         4.05855973568967    4.57498874198020    8.57238757441061
C         0.50754105026166    3.53614557997731    2.26262054781874
H         0.80273883738222    2.62084631836914    1.74392749430515
H         1.39774150552716    4.16251674663913    2.37564288123192
C        -0.53027602541498    4.27221162740106    1.41736625078933
H        -1.44862819281824    3.68258535975274    1.36297310107845
H        -0.13767773997938    4.41241103088851    0.40572518072729
C        -1.90790928023349    6.74976150478206    0.82236554509717
C        -2.05762660303065    8.13157561657492    0.93486452217504
H        -1.56236897527220    8.65069795562237    1.74549245749112
C        -2.81246308217793    8.83081797373849    0.01362179392455
H        -2.91593290803886    9.90140003173715    0.10143815943066
C        -3.43679166419757    8.15426973241921   -1.02330025149656
H        -4.02647072053232    8.69795887707829   -1.74475784418381
C        -3.30527991497533    6.78025442014656   -1.13152634705928
H        -3.79403754237191    6.25244905486388   -1.93628141136577
C        -2.54843625117859    6.07521558502652   -0.21055541797866
H        -2.46046396110005    5.00324257839350   -0.30359165764689
C         0.68660576948836    6.74241647018778    1.89448983727050
C         1.06513519064108    7.16639940432984    0.62232358327515
H         0.38018870193351    7.06494967130657   -0.20744963066229
C         2.31268510318045    7.72498600437209    0.41810261072798
H         2.59523178948617    8.05441643799750   -0.57009646792357
C         3.19789419787217    7.86187651854385    1.47587565234609
H         4.16987495934023    8.30113055618041    1.31344929561527
C         2.83174328727152    7.43305437167547    2.73979067634120
H         3.51784003988784    7.53121474105150    3.56757850572059
C         1.58225509567870    6.87505902957562    2.94909696369232
H         1.30774770281659    6.54259445287607    3.93806952327815
C        -3.64152064080218    6.76952095513916    4.24000946072819
H        -3.33801431174028    7.73962528059022    3.84408770815932
C        -4.33370509417731    6.83534567452522    5.58875105608638
H        -5.34876065659118    6.45393173801908    5.47518294390707
H        -4.41539102108599    7.87837634112319    5.89471105589971
C        -3.58759660984067    6.05539976515449    6.68979605131911
H        -2.94675822247061    6.73681288077662    7.24805919448529
H        -4.30674507278904    5.63717442852442    7.40040390758707
C        -2.72601100044035    4.94026478539687    6.15339094573699
H        -1.87039686030485    4.70805820665070    6.78444303888147
C        -3.18875146416848    3.95314356149112    5.29939899495911
H        -2.64612047133961    3.01180252604664    5.27169951590291
C        -4.62255886418431    3.87315458395094    4.83532649313813
H        -5.26601356088321    4.28784394292428    5.61107705329100
H        -4.89950909555670    2.82585036236460    4.71026927177988
C        -4.85125780615835    4.60809695724374    3.50354142466344
H        -5.88513166529227    4.95940960519942    3.44067557854694
H        -4.70286813064768    3.90962592719656    2.67793512534880
C        -3.92128449207578    5.77784263113801    3.29092682212283
H        -3.85170873016146    6.06117304512157    2.24172618263188

