50
CSD_code = IDOSAX | q = 0 | S = 0 | Stoichiometry = C17H28Cl2N2Pd | MND = 4
Pd       17.94239896549009    7.04984363202837   17.06136428853074
Cl       16.19661286626051    8.22491700048794   16.33182157489819
Cl       18.68677249445281    8.69535608853049   18.37715866845062
N        17.14933394322049    5.27131859941642   16.15959933481283
H        16.17740936219332    5.36728676022936   16.46716289236501
N        19.50123266131808    5.73403521650157   17.67558773212979
H        19.24185672740569    5.67618665657731   18.66206352523677
C        17.12147386065665    4.90844052588275   14.74337710591540
H        18.11157859906103    5.05688319389298   14.30366170956670
H        16.40393967041997    5.52824985398808   14.20708540982461
C        16.77046291852611    3.41817867607301   14.75962222558110
H        15.69638435486671    3.29052999200722   14.89974339966022
H        17.05794866590711    2.91305685678637   13.84098833713391
C        17.53878339782809    2.89327161210368   15.98094445033425
H        18.48754785967331    2.45047432007461   15.67833126609233
H        16.97264742504234    2.13450837290503   16.51739497443973
C        17.78998738218595    4.14282596509771   16.86008163134793
H        17.34102649604996    4.03719698623471   17.85658912384401
C        19.29296877723057    4.42926257026601   17.03269748347731
H        19.75187274186375    3.62018207192352   17.62000721108901
H        19.78045211221471    4.44400201548432   16.05476153666484
C        20.84295386568609    6.24829181648985   17.59236444454676
C        21.68190806265879    6.15804725019800   18.71343286561151
C        21.19791165859686    5.53934836673463   20.00952153672362
H        20.46715336910066    4.75022659819988   19.78908704525144
C        20.52145560154810    6.62640017264802   20.85412634334148
H        21.26206937130276    7.35491815525838   21.17415264976751
H        20.05894394822548    6.19155626848008   21.73790497345000
H        19.76498877070223    7.16421395765717   20.28359224163766
C        22.31258085619690    4.86147004281229   20.80933561144549
H        22.98089383671758    5.59150929986559   21.25668531192088
H        22.89396683140520    4.19525164682272   20.17503267012637
H        21.87615087701825    4.27629782684620   21.61633703478132
C        22.95304596191623    6.70858245057570   18.64129231405134
H        23.60359021175927    6.67286131182397   19.49935935512234
C        23.40114500820175    7.31024088622240   17.48199229903538
H        24.39289135179130    7.73483539745104   17.44258533586499
C        22.57476383808632    7.37753554185976   16.38001377929777
H        22.92905949570767    7.86206477762233   15.48400560010604
C        21.28754514860732    6.85513177066102   16.41075668474497
C        20.42279358746420    7.01518563827315   15.17558403118775
H        19.45375390394518    6.51186600738589   15.31916776984081
C        20.09325134452589    8.49679053319135   14.94573988096189
H        20.99575330193426    9.09381042428346   14.84650804880188
H        19.51217811165519    8.88027047532530   15.79236929767773
H        19.49779371104805    8.60663333700806   14.04091657795603
C        21.09330865729144    6.39937645506129   13.94392975588511
H        21.98991008577915    6.94820509514241   13.67030369862325
H        20.41214094119640    6.42729199610561   13.09585172300543
H        21.37590700806727    5.36377953350639   14.12980723783342

