114
CSD_code = IDOSUS | q = 1 | S = 0 | Stoichiometry = C56H49N4OP2RuS(1+) | MND = 6
Ru        0.28848920793691    4.01393971972798    4.89572210579096
S         2.65239838941724    4.24061200365534    5.52150352193130
P         0.88619499968527    3.16364859678111    2.77335839746060
P        -0.34967006279584    4.87698379635968    7.00066302670408
O         0.35444373843302    1.95480633344736    5.46504400069836
N        -1.63861447595927    3.87186394953823    4.48229408998898
N         0.00239793529284    5.78760769406381    4.04162869440449
N         2.33437518544956    1.80576163621297    6.63043813407818
N         3.58647628681223    3.28418958229573    7.80162305726323
C         1.35344182193926    1.31973195100696    5.89563914915682
C        -3.75875841658016    2.79385792107908    4.51515056140140
H        -4.35406757515874    1.95459627905125    4.83618017813883
C         1.39104953830737   -0.14710353566847    5.69489116007096
C         0.36523480147390   -0.76800568720309    4.98756985876025
H        -0.45666828100603   -0.16999066897325    4.62137361947151
C         0.40182969510530   -2.12924256383560    4.75800209495266
H        -0.39632427581858   -2.60558747013368    4.20839695343947
C         1.46354233643452   -2.88216804851403    5.23204967460363
H         1.49359030667301   -3.94593376533978    5.05074123206589
C         2.48584065200164   -2.27071512685957    5.94139857522750
H         3.31076274020885   -2.85999648380411    6.31261977514632
C         2.45269966220765   -0.90997555450768    6.17437815125334
H         3.24304408338165   -0.42089745265559    6.72159396864198
C         2.81153364677061    3.02239009014253    6.74321032541981
C         3.72009666838002    2.32772743423670    8.87483342773650
H         4.74810214597708    1.96271326571892    8.92939429581899
H         3.04840134620182    1.49187806698747    8.70092646579666
H         3.46802832285357    2.80986300427600    9.82150858538239
C         4.47558868564316    4.41216763447172    7.89076796084540
H         4.23827834011766    5.13764380942515    7.11772799818937
H         5.50976440493075    4.08150710524600    7.76096815816648
H         4.37616228074007    4.88097626451517    8.87043150202858
C        -2.42083690579198    2.85709502456102    4.84300765345537
H        -1.94304289750253    2.07087692544268    5.41344664426029
C        -4.31463005837123    3.82321779448110    3.76188385510021
H        -5.35374210699410    3.79774765656142    3.47571626112529
C        -3.51021543398633    4.88230036946811    3.39326845695416
H        -3.91460317531491    5.69795793276424    2.81794580925361
C        -2.16996407347925    4.89383352517476    3.77840454790866
C         0.90625120180043    6.75750470215819    3.89336739894198
H         1.88086662900318    6.56682906814849    4.32455029739973
C         0.64828922992666    7.93911820083769    3.23167456844501
H         1.42096798828937    8.68481374735938    3.14152474288379
C        -0.61529134296558    8.14286299884642    2.68868859290242
H        -0.85201084661619    9.05390165361994    2.16330572845645
C        -1.56203212714126    7.15008759257070    2.84071216002929
H        -2.55166513288822    7.27530244668085    2.43451675518172
C        -1.23524612103771    5.97865185600681    3.52140886429322
C        -0.64091765525216    3.06598363150557    1.79180646205232
C        -1.55371170686066    2.04185783228725    2.03745472079306
H        -1.30781617090115    1.27264790313094    2.75758677064690
C        -2.76517299851727    2.01228703638865    1.37205858819040
H        -3.45867221967312    1.20439750482518    1.55300306392694
C        -3.09131019665562    3.01946947023393    0.47812809730168
H        -4.03520617187463    2.99262189595721   -0.04438216910665
C        -2.20784971201977    4.06434961888323    0.26248571533530
H        -2.46532318800350    4.85837351545474   -0.42243493772799
C        -0.99152539652566    4.09425911164193    0.92008415211247
H        -0.30422081017873    4.91245246124560    0.74930148871913
C         2.03699102857162    4.00458668572039    1.63238663546107
C         2.01947388140063    3.65553314085561    0.28284007061571
H         1.29981675438463    2.93378410442293   -0.07812906508824
C         2.92185249535114    4.22865413028699   -0.59133189264070
H         2.90065656561326    3.95807971925052   -1.63629570307946
C         3.85782296133707    5.14136684575207   -0.12850997387677
H         4.56049822466005    5.58768464600128   -0.81552830728016
C         3.90040325452934    5.46407507206438    1.21632210297449
H         4.64299457382090    6.15577829663875    1.58470648894262
C         2.99723025445422    4.89317268555436    2.09690540400456
H         3.05474648210453    5.11607740826270    3.15166191838525
C         1.67011255732483    1.52029811160633    2.67290610288007
C         2.87566586502968    1.39946194870290    3.36193051851371
H         3.25778006280610    2.24797837241355    3.91671055868142
C         3.58612902100013    0.21576020574279    3.32560334863580
H         4.51694593210847    0.13022912355876    3.86543042388066
C         3.10278273048767   -0.85699164260959    2.59468458024253
H         3.65127781443919   -1.78600491013157    2.57017418518129
C         1.92229732860325   -0.73067032615950    1.88347057075674
H         1.55513396238595   -1.55835261911111    1.29518880959371
C         1.20713968227171    0.45433852635500    1.91175699375297
H         0.30010012562882    0.54186386737988    1.33195893060442
C        -1.31196759264591    3.88213353213929    8.18779440473561
C        -1.21058552379810    2.49634596717241    8.19460291909689
H        -0.57617601632023    2.00250820636224    7.47463534530161
C        -1.91544939629307    1.74771085389823    9.12248931853504
H        -1.83087386989908    0.67114703974410    9.11801504938298
C        -2.72151423059786    2.37935973319231   10.05323171340120
H        -3.27274326065179    1.79730025849229   10.77588969812958
C        -2.81556501053319    3.76347528853430   10.06187592454651
H        -3.43540915310310    4.25879823201856   10.79404006193618
C        -2.11404551911548    4.51450733804947    9.13906567740187
H        -2.18166025314338    5.59360448854443    9.15427436402364
C        -1.53423996108282    6.24244869288964    6.69268804000758
C        -2.86890690822595    5.90376563310029    6.46961362528262
H        -3.19104484065738    4.87762042856233    6.59355703959465
C        -3.79237193037643    6.87012407135228    6.11898853402833
H        -4.82322496917771    6.59049476786526    5.95980754084533
C        -3.39695931938389    8.18954934071075    5.97409685266869
H        -4.11658012495276    8.94442481424358    5.69697342796694
C        -2.07691020697763    8.53682300281764    6.20341634595924
H        -1.76386826677262    9.56588601343433    6.10971193596242
C        -1.15043860977990    7.57249219856518    6.56012949146087
H        -0.13155338907613    7.86888249470276    6.75561168994600
C         0.89312183287931    5.64584969676026    8.09506910433731
C         1.01208999102114    5.30757399026908    9.43954607311690
H         0.38466309798408    4.53988118360490    9.86779090715259
C         1.93520362501566    5.95816326890695   10.23988098763123
H         2.01270454694244    5.69464993325447   11.28439197089755
C         2.74877974138357    6.94651823684346    9.71139806978014
H         3.45528081742488    7.46255863368210   10.34362657246697
C         2.66484379493878    7.25832504650401    8.36407518098069
H         3.31532704962023    8.00882299889166    7.94032473308275
C         1.75468592225285    6.60113649743021    7.55736279258334
H         1.72200363917374    6.81346346791354    6.49823891767703

