49
CSD_code = IDOSOJ | q = 0 | S = 0 | Stoichiometry = C19H21O7PW | MND = 6
W         1.91480614235023    3.07136010764796    5.66575284912406
P         0.66208155021534    2.08760989439462    3.68510416140984
O        -2.44048106067570    4.69848098431714    4.13439584558590
O        -1.57194200524795    2.53538850477408    2.31271186755056
O        -0.24345914985570    5.24748079658627    6.31754726814299
O         0.68944990243325    1.13382544848229    7.80873763816428
O         3.46073527696014    4.36090631486541    8.04725256662044
O         4.33720496520854    1.08921695019447    5.40915611502988
O         3.33487284219853    5.25907152192664    3.92158148163868
C        -1.76598352045020    2.54244571859854    4.77002486337207
C        -1.73005753762617    1.50738000096691    5.69710054590948
H        -1.17284827317608    0.61363692672413    5.44926207042977
C        -2.40683350077577    1.60476273506779    6.89910622228365
H        -2.36996533832887    0.79313832894193    7.60831700619705
C        -3.12419872798843    2.75228435822634    7.18343118784516
H        -3.65425055523351    2.84234896571854    8.11939670810251
C        -3.16723655060162    3.80043277903598    6.27936991510867
H        -3.72111049380749    4.69051618121192    6.53104546935699
C        -2.48987577324036    3.71122176129960    5.07035129798112
C        -2.96845654920558    5.96366759004629    4.45928976555449
H        -4.05523273547590    5.92558059256120    4.58775422192680
H        -2.72825217437184    6.60606572977073    3.61349460939782
H        -2.50402438812765    6.36545043746105    5.36353711217969
C        -0.99410939461070    2.43768918207327    3.52280056133392
C        -2.98656633410316    2.46933933639159    2.19784580016685
H        -3.39487590453029    3.48289596526299    2.28531932396818
H        -3.40233384376021    1.85327009100802    3.00394792636574
C        -3.32564087461828    1.87909948429837    0.83751140642429
H        -2.87058543538670    2.47450130111064    0.05028836739305
H        -4.40293372192199    1.87339152772653    0.69934328840333
H        -2.95517008028648    0.85954789941534    0.76293079134561
C         1.39986559174622    2.00971462605362    1.95428574316775
C         0.74814020582638    0.88517068955334    1.14985432296432
H         1.23799752046386    0.79049188622581    0.18173836506737
H        -0.30443108371349    1.09008793051070    0.98205816937688
H         0.84225275976979   -0.06430172228612    1.67540435808254
C         1.22945422447054    3.35997278703171    1.26148587697096
H         1.66212068157365    4.15640859702337    1.86613026035775
H         0.17735241472661    3.57928030876417    1.10145001179766
H         1.73377727266379    3.35029802193193    0.29603853355750
C         2.88791143644854    1.70217493304213    2.13670139028314
H         3.37684381790395    1.62777177959382    1.16643292654056
H         3.02497785653312    0.75663227676096    2.66143608897222
H         3.38221611287744    2.48895345167260    2.70746478694769
C         0.48000432209162    4.41417560627587    6.01595345246372
C         1.09178612420714    1.79976356241755    6.97265504072423
C         2.89670587961817    3.87999336660049    7.17411535710392
C         3.42960958079380    1.78235277320040    5.43871979643554
C         2.79518852603492    4.42425170952549    4.48706726487532

