56
CSD_code = IDOTAW | q = 0 | S = 0 | Stoichiometry = C20H25N2O7PW | MND = 6
W         6.62353479466354    0.44410490577989   16.04471615816374
P         4.89081629704152    1.88349401736433   14.93070510099473
O         8.66632681431188   -1.42835621106949   17.47465226377226
O         8.90159203771812    0.94085119301506   13.95201396739184
O         5.85887708239110   -2.08632894009449   14.35971450961207
O         4.88145541795254   -0.42217727877023   18.49653547932226
O         7.78567038788564    2.78929842814813   17.77901932423800
O         4.39621629705655   -0.76176638874345   12.00912587508637
O         3.18004347642497    1.82397131566958   12.91621984794264
N         3.11473972951419    3.24594302527851   16.61788423589410
N         3.13964507464459    0.83241962157978   16.62358140260390
C         7.91655738016630   -0.73645175756631   16.95177006237623
C         8.02097972474173    0.81387161528740   14.67114753417970
C         6.06112905341285   -1.13470618328288   14.96392287630431
C         5.34927891758969   -0.02733762700271   17.53019112264810
C         7.31480688903026    1.97132600528759   17.13308424838267
C         4.45322514049223    1.62436411744696   13.30999287903031
C         5.52091293394270    1.26257954630078   12.36610070226068
C         6.60363932397357    2.10573038941391   12.15898432160817
H         6.62336328977632    3.05769556071668   12.67170698064353
C         7.63210032978169    1.73897167935045   11.30917492755918
H         8.46654681145744    2.40355386442207   11.15148907208500
C         7.58754437578939    0.50972573164981   10.67859335869718
H         8.38965730283860    0.20890100041359   10.02199118369412
C         6.52480235775196   -0.35498524930092   10.88570022000103
H         6.52218818298703   -1.31489911586775   10.39455308877192
C         5.48269039269662    0.01116592018371   11.72556218500364
C         4.36131539852516   -2.08210394724403   11.51898560975911
H         3.45223216304441   -2.52075881696121   11.92737157955759
H         5.22504076865187   -2.65632941571726   11.86346534373074
H         4.31550641906808   -2.10292789690981   10.42511563788067
C         2.87866304083958    1.87323582590100   11.52943748647221
H         2.71279569998897    0.85193336615869   11.16633871120571
H         3.71973779772364    2.30851536935914   10.97656962018324
C         1.62378549763998    2.71300258259999   11.35151824310129
H         1.35285965049405    2.75068015707574   10.30048137229893
H         1.79540448705800    3.72467978069481   11.71051953959398
H         0.80208699243459    2.27883550263379   11.91461028834575
C         3.22045109819389    2.04967135898091   15.83087336079811
H         2.42230976136733    2.07458602114413   15.07125424823023
C         2.84253690243962    4.39482929706712   15.78401728697680
H         1.90266146024263    4.24883944110945   15.25351160553084
H         3.64529583505651    4.56416511525737   15.04598408194396
H         2.75637475881512    5.27749900105425   16.41505480336246
C         4.27372961617978    3.48337612395904   17.45423774780026
H         4.54834664129131    2.56702390061214   17.97319798529016
H         4.03258040755360    4.25384127707280   18.18673690301963
H         5.13841990504080    3.82182888930442   16.85976774034154
C         2.78570901246181   -0.29743657005128   15.78559348109916
H         3.46595645947670   -0.36057628257131   14.93466253886923
H         1.75730559030978   -0.21712076580482   15.40233546890670
H         2.87152623024325   -1.21340686323112   16.36930586348191
C         2.22816078131255    0.91258811845002   17.75194118052685
H         2.43933284499026    1.79594712595843   18.34498144874907
H         2.36842746287088    0.02681433543954   18.37111904196945
H         1.18020750062937    0.95450878302726   17.42607885267730

