52
CSD_code = IDOYOQ | q = 1 | S = 0 | Stoichiometry = C15H28N5NiO3(1+) | MND = 6
Ni        2.26772156458418   11.07092828534345    2.50028341503168
O         3.65879649545990   10.53619161062082    3.51863452695872
O         4.86881090302753   10.72721960319694    5.33698385954060
O        -0.58525485078476    7.35170632116161    6.59418303037024
H        -0.08335739786323    6.58012756972838    6.88415432158169
N         2.68488410809211    9.59009797676481    0.99028614256194
N         1.16461234794100    9.15638632433996    3.40494432362908
H         1.84593939931917    8.96080400416443    4.13959843945444
H         0.25136546609188    9.14284424524939    3.85309653937133
N         0.77783291344425   11.50447767937499    1.34848518869832
H         0.01078311240226   10.90715452296498    1.66231403086468
H         0.44286178260909   12.46559566632599    1.39767930492030
N         3.95192077772777   12.14070921607687    1.21394726754379
H         3.89101349034427   13.09395278406774    0.86735983227403
H         4.67538862601040   12.13057404477425    1.93299608458343
N         1.87937076544615   12.31161739502097    4.11510801249109
H         1.59342994340459   13.27913335831784    3.97894060985273
H         1.09550128174744   11.82203128134532    4.56404712474653
C         1.24808424591162    8.09663849334109    2.39785450132746
H         0.36862818340340    8.16378171565833    1.75160967697972
H         1.25062737052529    7.09328228046653    2.84200780410648
C         2.54349589610804    8.25535211724145    1.59228660126270
H         3.37873841551057    8.12061078394529    2.28118311711209
H         2.59249355585755    7.47750215438217    0.81993691883506
C         1.72584682189361    9.78768735223577   -0.11477175727974
H         0.93515158922589    9.04097853136729   -0.03268073318969
H         2.21496653007632    9.64386207642049   -1.08375882195842
C         1.08875723985280   11.17955683380035   -0.05264299273378
H         1.77558060022961   11.93856311693031   -0.42553316808639
H         0.18753980796542   11.19993283206315   -0.67842020670793
C         4.07444858202331    9.78637418109732    0.55184199916620
H         4.31183872035535    9.11451706259998   -0.28306220840857
H         4.72023935339942    9.54531087132124    1.39791592639215
C         4.36215617471727   11.23304943294554    0.13675035668590
H         5.43298207976599   11.31249554240395   -0.08678665230902
H         3.81867367464477   11.48598831528562   -0.77567643103750
C         3.94021519483520   11.08165119485978    4.64858809709601
C         3.01402686672209   12.25132355055020    5.06670217852845
H         3.60440718962647   13.16993648347336    4.98823308108998
C         2.53686097303053   12.06295097290879    6.51773464726108
H         3.42520131515648   11.97702403346283    7.14361532851166
H         1.96496391685242   12.93724224658217    6.83663820262562
C         1.70484471287484   10.81531649794501    6.62482426327111
C         2.30710023428972    9.58232080405155    6.84919101958355
H         3.37149098842201    9.53383546447425    7.01687448495511
C         1.55941554879397    8.41985323188311    6.85929424887364
H         2.03988823598425    7.47033418580479    7.05127838529909
C         0.18569434891403    8.46648231349732    6.63735596641232
C        -0.42948442815570    9.69789351085658    6.42907760496699
H        -1.49879897697798    9.72759070681564    6.29223100922461
C         0.32630959628914   10.85607158876776    6.43073041830621
H        -0.18150528712799   11.80643763177873    6.32613507936909

