57
CSD_code = IDOZAE | q = 0 | S = 0 | Stoichiometry = C23H28Cl3NOZr | MND = 10
Zr        6.50013804153991    5.74215646191429    2.70876726654680
Cl        7.42093261924723    7.95090895730442    2.40463981514778
Cl        6.73765898638779    3.37805403182993    3.03873277258180
Cl        6.46063203267413    5.37737290576884    0.37984819604972
N         7.57230989392161    5.78925790221880    4.79247238950551
O         8.83327312923549    5.33575765437766    2.17360119849498
C         4.75936080397020    7.20962210261960    3.73115743077505
H         5.02836084027372    8.12580407405801    4.24168431941626
C         4.40600230422579    7.14253964105929    2.37223368459688
H         4.35643334024627    7.97851023993193    1.68570877937492
C         3.96461186530474    5.81681778684732    2.10256067826095
C         3.42553323070890    5.23041919256275    0.94250905248688
H         3.31693340982294    5.82013739176431    0.04212208620190
C         3.03964550655013    3.91549895652603    0.98111167310873
H         2.62377849749850    3.44806244831851    0.10116162917882
C         3.17273568530360    3.15930475687777    2.15700941479329
H         2.85763436385596    2.12642553095467    2.15138885711450
C         3.68742141471067    3.70015257178992    3.30846376276764
H         3.76262738727401    3.08222223044529    4.19201058154026
C         4.10227084518432    5.04854588390144    3.31827708747535
C         4.63287024074737    5.92893492034556    4.32878741688806
C         4.78715953173911    5.60874374653295    5.79758870252461
C         5.85554307282539    4.49146974463993    5.97210385868853
H         5.74796099240874    4.04079024592180    6.96128502610859
H         5.68449478352592    3.71206039526427    5.22370319544798
C         7.25826950048988    4.98867225926542    5.82558410226038
C         8.20270204356011    4.65499908392884    6.79823832737942
H         7.92009419492421    3.99629729717212    7.60459353638755
C         9.48462060454341    5.16095226207133    6.72590970591777
H        10.22757928295824    4.89423893035525    7.46240168401973
C         9.77852722307184    6.05026045807552    5.70206713437933
H        10.74720185336403    6.51750350858773    5.62696047186217
C         8.79680054480740    6.33416897593803    4.77122435952472
H         8.97906804855869    7.06356666129577    3.98926477705670
C         3.45493872441687    5.07927225044296    6.38344856960720
H         3.28408547658911    4.06293433940554    6.03021480569163
H         3.54831088415277    5.03872745204908    7.47158508489853
C         2.24099960204904    5.92436147385137    6.01407498732123
H         2.33739393845114    6.94266521637510    6.38104067141701
H         1.34556843243969    5.49093974302725    6.45329954517362
H         2.11243495780975    5.95694807663743    4.93552361726432
C         5.21788748011232    6.84371543914772    6.60178711924999
H         6.11801298167625    7.29822515272127    6.19024024049467
H         5.41814049522913    6.56037177255867    7.63397400396460
H         4.42922891309253    7.59066075957292    6.60183703684678
C         9.49911934297847    6.11660490710024    1.14908219517531
H         9.86214450998567    7.04004731161887    1.61586909917926
H         8.77268084755019    6.36766248818052    0.36969674018983
C        10.65757714758523    5.27079385121272    0.62612377082507
H        11.50009561807392    5.88399693100393    0.31622932090453
H        10.33190968218564    4.66125458534522   -0.21642870243990
C        10.96290627208685    4.38259471107400    1.82672771608006
H        11.49741329835428    3.47264669586918    1.56700668518214
H        11.53202370210964    4.93257879710055    2.57784773937661
C         9.55302403416171    4.10079460037765    2.32584495304587
H         9.07936989889009    3.32472195652266    1.71042280318025
H         9.50454764456020    3.80325227833902    3.37787902349299

