105
CSD_code = IDOZOQ | q = 0 | S = 0 | Stoichiometry = C40H59Cl2N2PRu | MND = 5
Ru        4.51673667884886    0.58425148367331   13.03666486793708
P         4.66415359355628    2.85289837148250   13.64029179978049
Cl        5.40233164246656    0.04265802211002   15.13857159035498
Cl        2.90512213018012    1.14634394472640   11.44074654351209
C         3.28828533789387    3.32624330717502   14.80908928298402
H         3.21999880122502    4.42248210222297   14.83040293324195
C         3.50938037261664    2.80949867096755   16.23225955916746
H         4.43305426805143    3.20820332396171   16.65420177444906
H         3.59476598041272    1.71908291688125   16.21878641092449
C         2.34179095071634    3.21374510460812   17.12951416648670
H         2.51444603544926    2.83964758409714   18.14116869483980
H         2.28611310847285    4.30499709094128   17.18264701600041
C         1.02717063750133    2.66461118552159   16.58733651771329
H         1.06757762508571    1.57340647497562   16.58821906137685
H         0.19805677130467    2.97531331179302   17.22782736339718
C         0.80107085181292    3.15221471030680   15.16082279079989
H         0.69827589917999    4.24104243665578   15.15713506513460
H        -0.12066630709654    2.72631515857243   14.75959510595997
C         1.97343689458367    2.75176251675959   14.27322847261549
H         1.78779361592279    3.08998586769993   13.25064684268004
H         2.03962833041393    1.65508865230358   14.25283364231731
C         6.21337071915626    3.28258369202337   14.57633562516186
H         6.17776085351998    2.56704180550746   15.41204793039016
C         6.34916882559867    4.68623283327181   15.16250154087094
H         5.44829165477026    4.98535651509940   15.70128847433756
H         6.52215505572623    5.41209715096092   14.36830249254503
C         7.55143120892490    4.70599127739868   16.10689856279361
H         7.66002681252232    5.70088517984136   16.54562007187202
H         7.38655251928837    3.99683963085333   16.92155063846468
C         8.82616189724232    4.32784657049230   15.35654699126712
H         9.67246289867522    4.31881949865872   16.04662072698265
H         9.02897597792788    5.08114377504161   14.59093271136657
C         8.68089552880525    2.96049260344482   14.69177426504666
H         8.55879531333416    2.19132784533820   15.45697227418097
H         9.58228957990101    2.72648072722480   14.12209919406696
C         7.46597693857333    2.94559961826734   13.76936580889237
H         7.60840221448555    3.67742279075987   12.97205151638174
H         7.34803512384366    1.95769733539272   13.30601550263971
C         4.39621270673291    4.02039255236787   12.21397477176188
H         3.36435169980012    3.78652620613401   11.91179743000360
C         5.29297483090039    3.65978378588465   11.02852640457613
H         6.32438049057057    3.94997503058684   11.23481789991309
H         5.27647940785043    2.57624780410620   10.86656387767895
C         4.80101742661041    4.38563524160208    9.78010881090419
H         5.44077746678201    4.13625332039368    8.93162626822141
H         3.78946562637571    4.04745963975940    9.54715705992330
C         4.80129029082691    5.89566046710903   10.00538853681651
H         5.82850565187826    6.23755646731750   10.15592524233412
H         4.40693308814614    6.40514417453363    9.12365927695581
C         3.96663500770231    6.26070739710755   11.23014377707664
H         2.92332383446077    5.98955066009561   11.05277207925148
H         4.00814309563928    7.33932688389628   11.40074653411389
C         4.48095803592457    5.52305061923955   12.46639040396503
H         5.51817066114795    5.81481361894731   12.63471719868954
H         3.89612016226582    5.81813955581463   13.33991474316408
C         4.14570905202303   -1.39567387874822   12.79196737367947
N         3.11451367259777   -2.08458143113094   13.28108021035715
C         3.21917995546464   -3.51884729222944   13.02565244300227
H         2.37479946907941   -3.85571776498047   12.41567519013593
H         3.20410614267968   -4.07136177922109   13.96963923489654
C         4.56241469515342   -3.63239015485685   12.30014525294619
H         5.28732148970275   -4.23404931832570   12.85524054741860
H         4.47124516874611   -4.05121922857273   11.29265030339699
N         5.00264311914664   -2.24252988434785   12.23233987986702
C         1.90270630839094   -1.53034630328990   13.78437027964740
C         0.89317610404008   -1.16769599258071   12.88949533071543
C        -0.27129354089541   -0.60634765833438   13.39758287919225
H        -1.04507386994497   -0.30373707291546   12.70661664841758
C        -0.46471738355396   -0.43822169386210   14.75881521487517
C         0.52885047777963   -0.86783458821724   15.62883702164110
H         0.37181907184622   -0.78346900988019   16.69561347681455
C         1.71465821782170   -1.41769090024149   15.16628881535156
C         1.00227972202016   -1.42144799563673   11.41649894216479
H         2.03439052882147   -1.53444428984392   11.09704250896253
H         0.57100256037228   -0.59344571562712   10.86010915939106
H         0.45085956150687   -2.32904430108757   11.16128847709740
C        -1.73904300990914    0.14431285169157   15.29060786418307
H        -2.41497231714049   -0.65661257710984   15.59261699159431
H        -2.24002292802085    0.74097552568123   14.53198662905877
H        -1.54755871215591    0.76648715708449   16.16236336566414
C         2.74887531174738   -1.90779246881872   16.13170493863958
H         2.82420359639756   -2.99488442710003   16.08944856406594
H         2.48573403831281   -1.62533060950919   17.14813086350709
H         3.73124346669281   -1.49446141956079   15.90282809995882
C         6.19758388070805   -1.88286577658099   11.55338804416037
C         7.42912523823298   -1.99120202022527   12.20617799295817
C         8.57851699629503   -1.66683657888533   11.50223666057047
H         9.53423897548561   -1.73298470762574   12.00217449169330
C         8.52936542494958   -1.25026518535483   10.18012463537558
C         7.29539067075704   -1.16148520096478    9.55209371279379
H         7.24576994896599   -0.83254889309296    8.52419253378027
C         6.11997250492645   -1.47223984191678   10.21655487616052
C         7.50612835166945   -2.42349876635401   13.63659724508427
H         8.49970466104677   -2.23957910443956   14.03536228920705
H         7.28954113769241   -3.48717900379931   13.73809586243684
H         6.78499578267898   -1.86765997031169   14.23457675341202
C         9.78219254109735   -0.87318259741443    9.45073869067499
H         9.95763656106165    0.19745427634088    9.55652192056520
H         9.69660837017710   -1.09637655967241    8.38985419677801
H        10.64336924476942   -1.39837800755123    9.85662579759939
C         4.79561065549026   -1.33986730277321    9.53289866080539
H         4.22215598878549   -0.53873974663612   10.00465797802060
H         4.21695958534013   -2.26020787340292    9.60234147364762
H         4.92922883199942   -1.09143687587477    8.48401286979426
C         6.01693885501615    0.62310744609770   12.06939266320626

