17
CSD_code = IDUGIZ | q = -1 | S = 0 | Stoichiometry = C5H5BrCl3N2Zn(1-) | MND = 4
Zn        7.00295687971514    0.39309110284855    3.51182282160540
N         8.54216769691019    1.90097561844526    3.06548062778538
N         7.27093823493136    3.58755055554714    3.97871036575265
H         6.83328798895990    2.87777426795923    4.57392426507066
H         6.75820387946868    4.43825151813615    3.82552034890622
Cl        6.15889905973270    1.15240300398975    5.53072811232620
Cl        5.76623918144385    1.18911765027224    1.75959018077877
Cl        8.15389607418120   -1.53516774285235    3.32951060252671
C         8.12001627245508    3.17625806069707    3.02815581438550
C         8.62282928463920    4.07368070107436    2.05815916536220
H         8.23828305507348    5.08151513802621    2.02139372312940
C         9.57776608825381    3.64930029956129    1.17304683432631
H         9.97643028552014    4.30831940454592    0.41563083580646
C        10.02443007075328    2.33331229884933    1.27348809230338
C         9.47553544677984    1.49323234677989    2.21498926040731
H         9.76876963804106    0.45519430425128    2.29640375054371
Br       11.37675086313964    1.70309147187082    0.10304519898221

