55
CSD_code = IDUGOE | q = 0 | S = 0 | Stoichiometry = C28H24HgN2 | MND = 4
Hg        5.31231924918373    4.58622275490325    6.32462297692913
C         4.14694614378982    3.69476936629916    8.07118838699442
C         2.83294498400670    4.03187480089132    8.39214328682143
H         2.31241572641685    4.78985360127256    7.81754969211572
C         2.15661015445821    3.41962354526909    9.43871947317890
H         1.13749618832427    3.70653756514633    9.65773440042678
C         2.77900299974352    2.44302863944596   10.19836860706645
H         2.25100382300548    1.96369964856902   11.01029278871318
C         4.08033274886486    2.08750070567184    9.90902756283886
H         4.57880292263237    1.32924018996652   10.49907269160922
C         4.76875691938821    2.70508279177665    8.86092410488714
C         6.14193000654485    2.29808815095207    8.61602934246327
H         6.50900082765177    1.45566464275317    9.21626705847948
C         8.18903583122318    2.46657454321904    7.50582352544601
C         8.44397354309938    1.13634169721649    7.17322109088534
H         7.62605304807872    0.42918251331366    7.18178832510372
C         9.71200781935515    0.73832638292321    6.79615683033883
H         9.89451429536471   -0.29275735200973    6.53115685706037
C        10.74143341042788    1.66231468919360    6.75715044182457
H        11.73443808805919    1.35738227510890    6.46239778939868
C        10.49470537939434    2.98301066754703    7.09497578976505
H        11.30159077159333    3.70184265151813    7.06608744136642
C         9.23028609355816    3.40743823707329    7.46854497995852
C         8.97328278885125    4.82680782350430    7.86711277359157
H         8.05823820724159    5.19708102525653    7.39644697760745
H         9.80467496104911    5.46718050055346    7.58248675313213
H         8.83309225879410    4.89693985286431    8.94624372120658
C         6.42110270044175    5.47124849778791    4.53657723467741
C         7.75656646075760    5.21964515900992    4.22601258885357
H         8.33848195354943    4.54391348305465    4.84237619270269
C         8.37694820023655    5.81088466467402    3.13351183901651
H         9.41479216491138    5.59175183933047    2.92428395904604
C         7.67507925296047    6.68028347967151    2.31535525100808
H         8.15952070949967    7.14504443864926    1.46856827014038
C         6.34930373059179    6.94542272045130    2.59003683356748
H         5.78740004075410    7.61629092317119    1.95301748340350
C         5.71650044864723    6.34575017870134    3.68264745660695
C         4.31154373238837    6.64562205353480    3.90025004502019
H         3.88030125543710    7.42295792818446    3.25637035354980
C         2.27334105093587    6.35771472840597    4.99935785619192
C         1.90124030920829    7.67851472766739    5.24947284384164
H         2.65595323466324    8.45159170512428    5.20573095888799
C         0.59891262809987    7.98744731027327    5.59154805576873
H         0.32481979049183    9.01280160319465    5.79228013648099
C        -0.34788129252697    6.98177851021573    5.67777971477260
H        -1.36727916359907    7.21704663573784    5.94511012610577
C         0.01565576174493    5.66934423566764    5.42316788250645
H        -0.72674612096456    4.88651343724055    5.49021613838662
C         1.31658762952838    5.33402919742597    5.08624269193846
C         1.70177058965560    3.92102096429015    4.78080749246748
H         1.89601585273529    3.80332349863741    3.71448093823464
H         0.91217065080429    3.23185863769806    5.06958115081294
H         2.62039684276057    3.65344533592774    5.31004394889606
N         6.90285345078374    2.89696966561802    7.79110601885720
N         3.59505894541359    6.02343253046168    4.74763286904599

