39
CSD_code = IDULUQ | q = 0 | S = 0 | Stoichiometry = C18H14N2O4Pt | MND = 4
Pt        5.33036778972602    1.99104574414454    1.69171662738244
O         7.05049203714555    3.00469850668023    1.66608936817920
N         6.24602301843564    0.24386793555880    1.74825654086907
C         7.11763432535017    4.15539744341875    2.26205173142180
N         3.70698631073779    0.87382975095460    1.59527772352136
O         4.29746350613859    3.68795095368155    1.48945073748239
C         4.70768900567905    4.75704162877498    2.10019724684700
O         8.10139876747417    4.85989682513803    2.22993097076294
C         5.87440871042226    4.54562909451730    3.07842306627056
O         4.18442333605505    5.83971157139715    1.96180258262890
C         5.54792989743237    3.54644878163481    4.21914948612764
H         4.51930838310100    3.17114251481275    4.20752702214625
H         6.24547461555711    2.70594675769234    4.30441349040312
C         5.78908260567673    4.67137347014985    5.24246218057132
H         6.63175671561077    4.48756101788429    5.90574261511186
H         4.91541601696287    4.92098461280917    5.84108272189109
C         6.08704601423926    5.66143498208989    4.10638161343513
H         5.37047863985122    6.47247583092794    3.99725083454679
H         7.09784202851280    6.06263201269358    4.08967592788901
C         7.54175063081449   -0.02162917078376    1.81417176624489
H         8.20232905914238    0.83285451696521    1.88447287022710
C         8.03036992946739   -1.32909346371789    1.78287918534873
H         9.09477171982158   -1.49140932432350    1.83909352591697
C         7.16181595233093   -2.39419138428982    1.67772255940827
H         7.52415243864865   -3.41040503158858    1.65075036756822
C         5.78150336709193   -2.13969103782789    1.59870970235877
C         5.37722758055816   -0.79232524197611    1.63637052008459
C         3.99933026628816   -0.45053677416803    1.55463396110746
C         3.02092106260974   -1.45510894981772    1.43745287703492
C         1.68162659459129   -1.03529645983298    1.35827016457959
H         0.89304507704810   -1.76623063399414    1.26591878542101
C         1.40355066788098    0.31423061666267    1.39470413331710
H         0.38708639951370    0.66788851098561    1.32993165788051
C         2.43829715451884    1.24414489655244    1.51147417949894
H         2.24866391743579    2.30960720664516    1.52863991841972
C         4.77144342096782   -3.13910451855965    1.47906592351461
H         5.08240033146271   -4.17244348260360    1.44973466673410
C         3.45551850756984   -2.81280134065367    1.40269695488220
H         2.70437419812669   -3.58282836863269    1.31212379296749

