56
CSD_code = IDUMOM | q = 1 | S = 0 | Stoichiometry = C25H26ClIrN3(1+) | MND = 8
Ir        3.16359146223224    2.56154246098404    9.44186166156240
Cl        5.20041713260089    2.81499623547653    8.31647011865567
N         3.77760909816808    4.18595261940658   10.61502546438118
N         3.83630402043205    2.89919766933461   12.58943244601482
H         3.84677777775451    2.96667792653314   13.59938757453162
N         4.26120387570633    1.42852351053926   10.79360577638746
C         3.83319657767908    4.12221935289794   11.94935112130698
C         4.25339852211519    1.67456130174847   12.10847580763287
C         4.66237920388737    0.70509639517335   13.03236997905093
H         4.62051604112611    0.92239855165279   14.08820460203838
C         3.88439041978243    5.28121355018534   12.73333937893194
H         3.90271249388785    5.19911721522821   13.80880504133336
C         5.13311592029839   -0.50763979834110   12.57840051687704
H         5.45561949804497   -1.26392059395712   13.27603103560271
C         3.93116910088209    6.51277368061287   12.11717357342277
H         3.97618019179471    7.41581314784197   12.70475480995142
C         5.20643402312388   -0.72441182606350   11.20608064689608
H         5.60226095284326   -1.64243810480422   10.80596976082753
C         3.94193821912014    6.56486187407824   10.72684470587851
H         4.01082642614050    7.50352529271208   10.20371496907835
C         4.75883841644101    0.26462049117652   10.35853272598418
H         4.81281002817992    0.14926096672357    9.28557091386583
C         3.85971348085859    5.38342365156619   10.02366776444376
H         3.87678545451782    5.37359651521145    8.94369425365888
C         1.86706334831003    2.39397626884183    7.61053985807075
C         1.89942386002253    1.14283434186301    8.32393364405205
C         1.26276887035730    1.34696708149447    9.60095644722210
C         0.93909562713706    2.72124368835892    9.71863216082342
C         1.33522421102747    3.38363099076300    8.49513112761210
C         2.24224607659493   -0.18516188566485    7.73135706902608
H         2.67537446352679   -0.85302792577647    8.47351605590789
H         2.94242473317599   -0.06531763132388    6.90812895078580
H         1.33964910812898   -0.66254508913421    7.34760730295294
C         0.91478177934873    0.26908002331532   10.57077325463741
H         0.85102231659482    0.65014356394564   11.58753114444594
H         1.64098447465351   -0.54049943140357   10.54361628231296
H        -0.05846650172809   -0.14741586152207   10.30750304906128
C         0.15414997327872    3.36009663048076   10.81480701773423
H         0.30547782672120    2.85059344121292   11.76374666298841
H        -0.90883113300884    3.31198867022542   10.57449539507041
H         0.42174416098249    4.40805435362625   10.93165114959249
C         0.93286037492185    4.77105573282201    8.11447452676378
H         1.39867728022060    5.06433298183151    7.17759000579076
H         1.19366949650649    5.49557611312392    8.88442198966707
H        -0.14953582894294    4.80327587678194    7.98153408054463
C         2.18212660561706    2.59058774343889    6.19196796227491
C         3.06024454993846    3.58253570241101    5.76139842027105
H         3.58926348710522    4.17979748516741    6.48777157551423
C         3.30164667461039    3.76258180765460    4.41235800276150
H         3.99440752455584    4.52522397057271    4.09126594893688
C         2.66322956601054    2.96576753401962    3.47655028826969
H         2.85253740292110    3.10854732103875    2.42398909240959
C         1.78384180447053    1.98155484118421    3.89630251598573
H         1.28104600358692    1.35911720740236    3.17194489652634
C         1.54662576183741    1.78887280954636    5.24420853691298
H         0.84503776390097    1.03396955779248    5.56493093676373

