46
CSD_code = IDUPAA | q = 0 | S = 0 | Stoichiometry = C20H16N4NiO4S | MND = 6
S         0.13869330812676    1.91872502581844    3.53487577938297
Ni        1.86362329167781    2.74949772098086    2.10929817043866
O         1.62432684654517    2.15746727691839    3.81434781438577
O         0.08355051556430    2.36590269835390    2.07195774435095
O        -0.66480413005197    2.79017439299135    4.35607649252846
O        -0.17079947528593    0.51387954483218    3.63396851113151
N         1.83638752062515    3.06579750302866    0.21081133260979
N         2.26243207096976    0.61283188311485    1.25873930103688
N         1.53603729667923    4.92223072744240    2.89594644682067
N         3.65812722920120    3.28782604062018    2.54806457224586
C         1.85759653953742    4.26304378642938   -0.36445581576216
H         2.09570347697891    5.09617626015908    0.28366902574715
C         1.58490846727835    4.45541086627019   -1.70874741249769
H         1.60029863646077    5.44836329557658   -2.12889015144957
C         1.29178224881587    3.35073488209135   -2.49436634561199
H         1.08272024556341    3.46097635407994   -3.54790897092136
C         1.26799175532775    2.10262202129926   -1.89915602575791
H         1.05371079363350    1.21909580685372   -2.47957547488071
C         1.52910347801721    1.98907642285759   -0.53602649526724
C         1.44536002043462    0.71056875063778    0.19431440867696
C         0.51406378450522   -0.26877309559901   -0.12310844095729
H        -0.14167617306481   -0.15013277482932   -0.97182724091302
C         0.38956957150951   -1.36292238913934    0.72055773371071
H        -0.35540501494679   -2.11926244421676    0.52292866652033
C         1.21142518010824   -1.45129483322522    1.82870899607537
H         1.12426458520947   -2.26933669183805    2.52413753039674
C         2.14242093656624   -0.44427757496515    2.04582308639383
H         2.81545661205578   -0.48073601773218    2.89204802816914
C         0.31866746788866    5.33494146430597    3.21056599668003
H        -0.39860256000114    5.34785685376949    2.40078147624765
C        -0.04459947425995    5.72091080906509    4.49393354541035
H        -1.06077682879485    6.00753561124457    4.70756840452615
C         0.91782641322869    5.70233984402663    5.48622240365531
H         0.67263175272896    5.98365696886073    6.49952872931669
C         2.20281156556729    5.28705457933002    5.16874042690021
H         2.96429216558496    5.22089390036248    5.93039254921548
C         2.46580874819681    4.88097445693695    3.86755776088437
C         3.74449062405548    4.25940270109072    3.47554459987959
C         4.96511606033146    4.61017261273078    4.04669396504031
H         5.00980441017541    5.41286638780977    4.76579042291649
C         6.10936494002347    3.92573796700625    3.67943210518214
H         7.06381666556221    4.17622295882271    4.11776762350012
C         6.00300592778645    2.90967184373316    2.74149884256869
H         6.86716543801432    2.34108335301378    2.43711358626203
C         4.75932170501260    2.63202621621600    2.19866947406589
H         4.63178536086389    1.85108603286526    1.46058682114987

