49
CSD_code = IDUVEK | q = 0 | S = 0 | Stoichiometry = C18H19CdN3O8 | MND = 7
Cd       11.12724210043795    0.67831340478738   17.87728867355290
C         7.83548128877154    0.75946448765799   22.12885797132587
H         8.44603480122192    1.34963654354718   22.79251648382661
O         6.00042958352918    1.10750881831715   23.59863853666083
H         5.07108109146201    0.84596670280055   23.66695453723565
N        10.30425591101670    1.58718145565233   20.78290101297300
H         9.69557346541957    2.34094025879336   21.10061873967201
C         6.50834831629625    0.54926777128441   22.47340447014846
O         4.38357915193146   -0.40990668012358   22.01069800398302
H         3.97159741052676   -0.96709165868640   21.33714037003315
N        11.40072887422659    1.85679484571203   20.07069988456958
C         5.69124517354604   -0.23384583191922   21.65120109064103
O         5.35489886982794   -1.55791201147055   19.73336092360640
H         5.82302856501561   -1.87386485958301   18.95171263611110
N        13.10309888590827    2.00721622757117   18.12105432938053
O        10.35387784576157   -0.49013120230990   19.89328685669170
C         6.21439329749172   -0.81371152480281   20.49374756273080
C         7.54383110757425   -0.62256838716372   20.16733141489250
H         7.97095320344448   -1.04803484463567   19.27036929387986
C         8.35151556121749    0.16951482279355   20.97965033989502
O         9.38325519129318    2.13210556232056   18.17881526091773
C         9.73716623466079    0.35508438284240   20.51307821937051
O        12.16429664123593   -0.90732466559901   16.85357230707321
C        11.36519335422726    4.28488841175868   20.50252548603653
H        10.28426907383952    4.32146494850640   20.36158956102294
H        11.79654169049459    5.15912666370737   20.02644827032461
H        11.57385523766316    4.32241916609374   21.57231115795496
C        11.90101491949424    3.01764447654820   19.90025699936495
O         9.97315180149651   -0.92596900247243   16.94637414518620
C        13.05048116877018    3.02908555749055   18.98188368867783
C        14.02568597720149    4.02562224756401   18.98720958664625
H        13.99338787742105    4.82698016974635   19.70888356267781
C        15.05690368916441    3.95627544952802   18.06487890890694
H        15.82271211920852    4.71808156314224   18.04805859427651
C        15.08990387080884    2.89878954555540   17.17086494263340
H        15.87227953085861    2.81807199550105   16.43323583956234
O        10.63636932764036    2.19832728760967   16.37842245914021
C        14.08661889560022    1.93978210122050   17.24539701177943
H        14.06104225298038    1.08536224596554   16.58154843967427
C        11.05713004680251   -1.41956600434964   16.56786810576565
C         9.64790761007704    2.58040015784782   17.04069359799195
C        11.03527506246719   -2.69833169855127   15.74604019509985
H        10.17433271234944   -2.69717040793367   15.08402347502568
H        10.95225036941893   -3.54142851128046   16.42853396847112
H        11.95612563780419   -2.78956227094750   15.17850699694631
C         8.74199914851266    3.64733708481802   16.44245478411894
H         9.34119054265061    4.38799404577725   15.92051033113796
H         8.14290573314864    4.11299391654678   17.21956800368267
H         8.08275977808079    3.16767724282514   15.72271296872316

