98
CSD_code = IDUWUC | q = 0 | S = 0 | Stoichiometry = C44H48ClNO2PRh | MND = 6
Rh       -0.17499907679074   15.07498703720407   10.18334413288361
P         1.41721014366498   14.30562805815058    8.76298339903791
Cl        1.25339312893294   16.78617856159589   10.53986487033185
N         2.04964232548576   15.24507183945384    7.54896488371608
O         0.88450572307395   12.87338330339073    8.09006311362437
O         2.79544878445275   13.78491021444034    9.46029352820203
C         1.73529944405187   12.10846236984672    7.32520345003202
C         1.67919757162454   12.22488214378969    5.93825997590762
H         0.89548650359549   12.82963944736530    5.50743882345747
C         2.61701330199540   11.60144542124662    5.13711390454771
H         2.55024579305790   11.69857922077097    4.06396245622588
C         3.67657672258163   10.91540145341595    5.71087251671517
H         4.46604804850939   10.50661360783441    5.09819231013961
C         3.70288990360524   10.76353634064780    7.08276308884053
C         2.68855410786956   11.27287159691178    7.89274040946775
C         2.82383026281052   10.75326475548006    9.30100032493977
C         4.33792063232115   10.39350319787470    9.36499446306312
H         4.86709262976058   11.27400028814198    9.74542944619190
C         4.78133200665116   10.13836533388228    7.91088359721239
H         5.74418085321563   10.60940167023477    7.70058585716557
H         4.89135189045720    9.07558377020656    7.69696526907096
C         4.62295794406991    9.21695836402735   10.28859217478577
H         5.70127763663022    9.04738904157018   10.32813083662595
H         4.30549523655882    9.49114337715726   11.29587439940066
C         3.91896497102603    7.92959808167473    9.83609959930181
H         3.72216052479121    7.30893428334070   10.71226234325917
H         4.58104952869457    7.34825517930405    9.19173552230275
C         2.61019817021607    8.20422866303944    9.08181676737502
H         1.92202045531175    7.36908732661200    9.23137435814813
H         2.79634818140423    8.27686277083369    8.00924623665831
C         1.93534626418647    9.49196931631316    9.53375967228749
H         1.01647936855682    9.62759521478913    8.95246270148214
C         1.57426103009691    9.48537953653626   11.03363919329508
H         0.52702167857682    9.21773257719117   11.19046019215108
H         2.17570394404055    8.76940316217129   11.59319284273452
C         1.83353680179154   10.89045914450745   11.47788522607521
C         2.40635141679128   11.63157181014793   10.44574376624585
C         2.50492647104020   13.00453760384384   10.57169187147169
C         2.16034850961031   13.61266206324524   11.77716404780553
H         2.27550682166696   14.68283170042541   11.87528415915725
C         1.70985818569998   12.84478418011114   12.83796698913184
H         1.47267761322480   13.32366949639507   13.77606428126539
C         1.49869001760730   11.48168378565631   12.67956705332207
H         1.06289554980302   10.89516469822444   13.47530407726540
C         3.38178123248173   15.00541144878681    6.99538609395411
H         3.63733324203084   13.98356348050378    7.30949379994575
C         4.46036510479217   15.90872631240613    7.57441508407159
C         4.36392131403994   16.37887216090191    8.87837105022027
H         3.49510867989414   16.14355108532079    9.47006022996170
C         5.35823523245184   17.16702057113071    9.42781996261826
H         5.25043580231897   17.52699368131121   10.44021709631500
C         6.47995813494176   17.49420000213886    8.68661934862647
H         7.25802621643779   18.11088381629661    9.11246840662730
C         6.59556983323089   17.01935303857868    7.39284792229223
H         7.46837045014135   17.26096090159744    6.80271150045879
C         5.59785846243435   16.23244864537443    6.84274052828621
H         5.72412013900144   15.87372142535589    5.83323405631246
C         3.36444094995823   15.01575495856961    5.46426693014183
H         2.46053523076962   14.53921535112555    5.10011173077627
H         4.21337456835092   14.45544307777267    5.08069817157151
H         3.40316926082618   16.02863416127292    5.07396256321161
C         1.24343046162241   16.40230263266782    7.15195257988782
H         0.44285031056485   16.45612100727956    7.91507819989192
C         0.53408835361026   16.14970677907611    5.83697170387249
C         0.76854745103191   16.87303019446348    4.67550951669003
H         1.49127975319778   17.67367055099308    4.66694335300774
C         0.07822318532581   16.57715467727660    3.51147977762057
H         0.27379531950008   17.14822285739764    2.61539497052171
C        -0.85790482677592   15.55890473046244    3.48986959176254
H        -1.39260000707532   15.32985443332423    2.57980328429813
C        -1.11245186283713   14.84199608022272    4.64764529871133
H        -1.85141932198873   14.05315151363918    4.64549620483761
C        -0.42501491696189   15.14332562506556    5.80801076054657
H        -0.62663898746902   14.59880191384203    6.72055566482497
C         1.99776553263576   17.72488243969877    7.21256259816828
H         2.31621796735799   17.90801710192913    8.23453501904484
H         1.32959533536056   18.52909739347442    6.91200117213539
H         2.87529716328772   17.72911503488540    6.57298993600354
C        -1.78072143934996   13.87129250330788    9.42876409250941
H        -1.52960031593394   13.52617259781797    8.42942080449791
C        -3.13123773225781   14.54649730714172    9.54223021620192
H        -3.65377821116110   14.46229649073055    8.58714370878566
H        -3.73154094747079   14.01994606375396   10.28577251496224
C        -3.00867971416408   16.03836686694663    9.90564923258095
H        -3.91244624736689   16.37604149318214   10.42497019056691
H        -2.92867147364244   16.62149009180024    8.98403269734903
C        -1.80250441421725   16.35178264886066   10.75912756863310
H        -1.45467886234161   17.38099199777987   10.66404153489283
C        -1.40207320219467   15.63476739512256   11.87269450265351
H        -0.73807385596157   16.13526949898576   12.57754088435140
C        -2.19035962479046   14.47978577809636   12.44923139735752
H        -2.06322665594073   14.47044195846914   13.53351170086008
H        -3.25115954683083   14.64175460936853   12.25055584006082
C        -1.73465664899858   13.12183082159487   11.88361958566964
H        -2.57328868934163   12.41606068714905   11.87719489124249
H        -0.96404339917242   12.70372684109942   12.53387010276481
C        -1.16238456326788   13.21717364339323   10.48874349464152
H        -0.47753624240356   12.40489061221326   10.24822279989549

