89
CSD_code = IDUYEN | q = 0 | S = 0 | Stoichiometry = C38H48S2Zr | MND = 12
Zr       11.49939445984425    3.72059246278896    2.37119957041481
S        10.59668824251716    0.63303732481791    4.51668904139253
S        11.36346991572036    5.45705106959842   -1.33017123160142
C        12.46482146937161    1.19330535975986    1.16603739005858
C        12.63412349539414    2.19564044910780    0.10204733520908
C        13.14525243145405    1.64303046692610   -1.20636692995040
H        13.42631249018142    2.45825785420010   -1.87524772935486
H        12.36210810087969    1.05913586409487   -1.69853186791651
C        14.34695561163848    0.74522930009039   -0.90931663102232
H        15.08624712853086    1.34220693890993   -0.37107865570375
H        14.80798567483562    0.41108906936193   -1.84102862135904
C        13.94734098211113   -0.46793114264736   -0.05698892599348
H        14.75346850722610   -0.69155947472171    0.64324595436623
H        13.81976401416524   -1.34613163682279   -0.69374587236323
C        12.64140654340279   -0.23897949714081    0.72009792182322
H        11.79712263270750   -0.47708172902150    0.06413166659524
H        12.58890332975091   -0.91414392650373    1.57504062243024
C        12.11849388671873    1.60900022123170    2.40820260388407
C        12.39558838266114    3.49762971541860    0.37300632848765
C        12.07390924265057    0.74965973785734    3.56664643700767
C        13.08341014439081    0.02512808600842    4.16158183343254
C        12.66150928277960   -0.63654904039758    5.34209321245304
H        13.30542358723653   -1.26524328065506    5.93123025351882
C        11.36563989689797   -0.40608713176144    5.66126035353410
H        10.79933474625280   -0.78932847381730    6.48610070659166
C        14.48378294947221   -0.01633477599998    3.62489925430114
H        14.59718339022674    0.80178170637424    2.90614661420402
H        14.63522951451206   -0.95739912500876    3.08559063891159
C        15.56247014823986    0.08895215655453    4.70794287564737
H        15.50977983992009   -0.78263331516157    5.36368447051973
H        16.53787111977845    0.07279676274382    4.21797078502037
C        15.42649881756797    1.35591619589640    5.54797079973967
H        14.41559494921003    1.38743673349478    5.96160355325985
H        15.55333690012887    2.23261711471129    4.90870534398698
C        16.42143078230190    1.42428421997264    6.70660042152215
H        16.15082132212283    2.26754084553720    7.34735932128893
H        16.33831155504594    0.51531981379147    7.30796765651605
C        17.87111204224131    1.60135799117035    6.25969183848487
H        18.18637303118018    0.73627792994356    5.67382254379331
H        17.94404693111279    2.48362860275916    5.61928998643552
C        18.80751209613301    1.76221404212519    7.45132681109803
H        19.83498867634706    1.89055411012741    7.11812719812632
H        18.76229237366757    0.88434834462354    8.09272463788466
H        18.52743806365185    2.63137041467020    8.04303398589353
C        12.66918209265554    4.58846961514949   -0.53533690956612
C        13.87842382641787    5.17690376057855   -0.82598610535121
C        13.75343790996713    6.31064733150439   -1.66756943569344
H        14.59507094136635    6.89816700380044   -1.99116443564118
C        12.47492041708334    6.58506750946502   -2.01877131651318
H        12.10267534995098    7.37068555985730   -2.64486424741681
C        15.18961950342456    4.68030847742483   -0.29469308815670
H        14.99643067790971    3.87901126217472    0.42601541038676
H        15.70689497923259    5.49321708637158    0.22559562049072
C        16.09797956390698    4.16097181476184   -1.41375891438317
H        16.29999844754340    4.96930444138015   -2.11988156079071
H        15.58191325410513    3.36897132145890   -1.95936146397663
C        17.41895568560391    3.62257956633492   -0.87160160767201
H        17.94174949058608    4.41721682458295   -0.33319561594154
H        17.21746419777398    2.81990013180073   -0.15755457218552
C        18.31675740649637    3.09134087408752   -1.98607634852277
H        18.51132166882228    3.89123864621549   -2.70463951099006
H        17.79559340286677    2.29104893226256   -2.51697774754678
C        19.64567008203382    2.56011019711889   -1.45438519302704
H        20.16727182699621    3.36000590891583   -0.92356913793631
H        19.45275641161655    1.75892695729347   -0.73710416180696
C        20.53415080865135    2.03381816083515   -2.57478816430255
H        21.47722121117340    1.66617774558537   -2.17687443016816
H        20.74892342800575    2.82209121732260   -3.29322706120665
H        20.04194726240156    1.21829414465540   -3.10036275977447
C        12.88205065307598    3.96843103290792    4.42654567000872
H        13.04286167912945    3.18460615447953    5.15684435872934
C        13.72470640016492    4.26477897201555    3.32891212277149
H        14.63571186482522    3.73968005593452    3.06683632479227
C        13.25514498463499    5.45657446953208    2.72875632852118
H        13.75117159626516    6.00949285355070    1.94023544658484
C        12.12591214873778    5.89273828405299    3.45302110098153
H        11.61597113562617    6.83916748713767    3.31045003186804
C        11.89801934923548    4.97537343506420    4.50351430935300
H        11.18126012566941    5.09270061186555    5.30856979887687
C         9.29394874918549    2.65109220915520    2.02364473481306
H         9.14350505386300    1.58155687477192    1.93594391606910
C         9.47090454626896    3.55259653954682    0.94834253084202
H         9.48298078102633    3.29194778206454   -0.10312032870023
C         9.45674424943529    4.86621202519825    1.47374689196557
H         9.45230515999742    5.77860402094498    0.88870669152333
C         9.25022393139317    4.77487271502535    2.86516227828131
H         9.05547077306879    5.60806799538002    3.53007686374431
C         9.16796876009572    3.41026096474130    3.21181067857179
H         8.90015950911359    3.01728267074122    4.18583950561017

