19
CSD_code = IETHSH | q = 0 | S = 0 | Stoichiometry = C10HgI2N2S4 | MND = 4
Hg       -0.07345789060192    2.42295153807259    3.25913301171859
I        -1.16460437734762    3.00326189279268    5.55941193634483
I         0.97030124688990    1.59532015597611    1.01358763530776
S        -1.27198132496868    5.04065712113304    1.71513896575792
S         0.23144252902108    7.31749142295139    3.03266349404645
S         1.39373277597753    6.74528141387479    1.45890950209458
S         2.09281008903608    4.82830128732054    3.69864376941378
N        -2.10639431507847    6.43115626931386    3.81794611882096
N         3.19955872927932    4.85382324657054    1.28511164083508
C        -1.13846239118057    6.20377991368232    2.86790920333239
C        -3.12180378220055    5.57343651285220    3.97122937632393
C        -4.18240213901918    5.04219788177133    3.66104197807328
C        -2.01152088133669    7.50429985774664    4.61631743082364
C        -1.55751267738635    8.19683781188638    5.52160496166244
C         2.29064501408701    5.38938202576612    2.16710486408094
C         3.43005722861739    5.46910592720874    0.11629762846196
C         3.18389162348383    5.84639393315596   -1.02484983813638
C         3.83027900206350    3.70923579588686    1.57200103183643
C         4.65352154066556    3.01088599203640    2.15329728920773

