100
CSD_code = IFAHUV | q = 0 | S = 0 | Stoichiometry = C47H34BF15N2Ru | MND = 7
C        12.03215958110484    6.16074351349119    7.30564758380126
C         9.83146563808616    6.02771134177085    8.08118763270545
C        10.09014551093545    5.27521750743676    9.26938587683788
C        11.39766649825268    5.45518011035333   10.00950090684856
H        11.82400803259954    6.42796849857376    9.73497251762002
H        12.13027543077721    4.65928029936288    9.64531288679620
C         9.02520218116915    4.51976804758251    9.78244394607604
H         9.16404641995457    3.96330881831438   10.69363141836998
C         7.79401375319085    4.50374358516822    9.16328393379021
H         6.99318047089477    3.91342519800582    9.58195136650444
C         7.56572076445328    5.25488249446493    8.01667058126444
H         6.59217539638905    5.24415625565215    7.55047246914784
C         8.57225781462402    6.03004544252848    7.46485075838051
C         8.31214700716981    6.84675281874619    6.23352324233662
H         7.48943129436350    6.41817338345631    5.66670444425705
H         9.19225224451214    6.89396981297737    5.59459695992397
H         8.03413008055269    7.86531268603812    6.50446152671660
C        11.00880647110837    8.16107419250824    7.25615897680537
H        10.23352064132542    8.87976011419269    7.41888049506525
C        12.26084868117099    8.31132409642927    6.76336617699227
H        12.76972963490926    9.18700914196203    6.41933171358455
C        14.17440462596554    6.82015114439699    6.28151543632937
C        15.16596091270007    6.33810140107003    7.13955757640149
C        14.86677809723865    6.06069086943088    8.57705738454099
H        14.35090708352788    6.90068589805411    9.04147783092015
H        15.78279923956744    5.86355702067316    9.12584309628525
H        14.22248722193352    5.17849819315390    8.65017078709270
C        16.43225297112521    6.10538286139460    6.62228368071216
H        17.20781341386409    5.73733985848774    7.27613237859366
C        16.70736548828636    6.34092566406567    5.28775310680096
H        17.69745161344319    6.15773290454238    4.89973720703154
C        15.71231582848973    6.80536938237458    4.44874555622595
H        15.92368791605374    6.97958066731504    3.40438661244193
C        14.43215607913007    7.05148520055396    4.92863725628902
C        13.36986561277168    7.54477089174481    3.99113555551795
H        12.38189021064018    7.20057129415374    4.28810099465567
H        13.57167894629337    7.19451449759578    2.98170264596204
H        13.35756531136199    8.63445436594852    3.96666410202244
C        11.89969439727587    3.31961153909116    5.89667005198963
C        12.09750471056336    3.95823227545590    4.55530540898004
H        12.14939047958590    3.18345341917830    3.78863400982789
H        13.02436462155574    4.52626979846392    4.52878843647544
H        11.27149954254300    4.62239680866937    4.30674303249659
C        12.94350065159361    2.86010843599712    6.77064966320421
C        14.41287927775368    2.88032945035145    6.47849390405448
H        14.99146834173450    2.86177840501934    7.39906353674541
H        14.69230078703540    3.76526203492214    5.91153564057551
H        14.68053470074737    1.99937010088712    5.89196144118119
C        12.32468648382263    2.04128924255776    7.79441084063301
C        13.11621442020515    1.23395696386364    8.77176839456732
H        13.75938147458078    0.54147489769341    8.22748945415343
H        12.47006342796925    0.66180190940723    9.42948505133779
H        13.75376940071041    1.87384902928872    9.38233078161420
C        10.92842627304521    2.04426484855981    7.59369435865688
C         9.89835249666197    1.19903332563461    8.27470212643674
H         9.03856499144196    1.79493937229746    8.57814334700145
H        10.30627443036452    0.71320989161522    9.15521430577156
H         9.54777753986758    0.42790625990353    7.58644204111731
C        10.65470926779962    2.85645934858319    6.43802002560698
C         9.30903241552566    2.98733000596333    5.80149817467752
H         9.07080489042874    2.06972515671147    5.26084830994378
H         9.28185664992749    3.81524583582024    5.09594410891883
H         8.53535363297049    3.14175022327680    6.55358368208107
C        11.29846280090563    4.05168619808188   12.43787292977290
C        11.30475426745356    2.81120660662562   11.81845914231002
C        11.35688450270623    1.60560635678715   12.50913254101918
C        11.41715214896725    1.60739409974772   13.89388934814286
C        11.42771835754457    2.82915070253903   14.55826210283321
C        11.37382919078117    4.01047185430037   13.82969608150032
C        12.68862620086613    6.20344860338045   12.21116958819628
C        13.91119917433215    5.62284149328185   11.88686563072607
C        15.13905321585857    6.13123248338538   12.28676796473307
C        15.18125029086511    7.27243817318980   13.07640905995035
C        13.98399613503408    7.86400535957259   13.45623655956427
C        12.77209059874879    7.32594195353096   13.02897494607489
C         9.97301337645604    6.39755312577907   11.95831593184947
C         8.82769241828268    5.95173227464820   12.60674357505535
C         7.67249207827101    6.71645699719599   12.74034817797141
C         7.61981878964467    7.99138483633043   12.19707513893404
C         8.73705383913683    8.47279926930971   11.52781245429850
C         9.87177480327542    7.68195053021638   11.42659403630363
B        11.30766566102632    5.49447890074505   11.67204154370475
N        10.88781087436941    6.83350747152514    7.56529015665291
N        12.87426317167415    7.07563909178688    6.78901355184855
F        11.25709030036842    2.72809410827387   10.47228605289824
F        11.34978187373116    0.44710002538899   11.82837962675255
F        11.47022616562201    0.45891023363930   14.57519177682361
F        11.49865524713704    2.85814632236341   15.89332278270124
F        11.39173196934098    5.15792909528311   14.52199683722834
F        13.93584132353966    4.49139971488963   11.14799189816763
F        16.27650809462605    5.52870112399488   11.90599725716521
F        16.35256812878627    7.78615196880231   13.46599644331725
F        13.99967838236619    8.95460490311190   14.22997096995019
F        11.66525129952353    7.94503753297544   13.45744481672794
F         8.77015434957074    4.70461644891806   13.10914777517114
F         6.60184555742301    6.21146243228146   13.36572392107475
F         6.51020323826700    8.73168638317937   12.29179999505280
F         8.70801477517765    9.68523630815659   10.95420239867032
F        10.91077081676936    8.21534422628208   10.75094133699560
Ru       11.61510715648012    4.24018473724540    7.84747890010782

