56
CSD_code = IFAPAI | q = 0 | S = 0 | Stoichiometry = C22H26FeN4O3 | MND = 4
Fe       13.77470987012689    8.44406379422218    0.94555680503954
N        12.31068865894363    9.05220252354702    0.63751804367160
N        14.93551920023141    8.02671715768268   -0.09516006565094
O        11.25422288257205    9.55488137184492    0.45047621475212
O        15.83472670433181    7.76164834292417   -0.81966723060589
C        14.57113357526293    9.59651177805672    2.08827174057643
O        15.08945344422201   10.37006395554230    2.76646275043858
C        13.43404146267023    6.71276412894145    2.13914444949563
C        13.81835233818584    4.71024023789676    3.29820991660998
H        14.39260162881033    4.67572018807932    4.22901886680693
H        13.90810420168435    3.73747795002975    2.80583674752841
C        12.36743211118840    5.13845670361678    3.51176612496654
H        11.64752135482719    4.41072295159142    3.12531405715369
H        12.12867651090420    5.32478425304361    4.56314633568523
C        15.67910256346187    5.71826876614201    1.97932629073483
C        15.97557984181271    5.06109597581033    0.78346269729234
C        17.29653898179890    4.99658282389112    0.37202659182774
H        17.53494133193417    4.49984904211075   -0.55723481400288
C        18.31673245808042    5.57222742881147    1.11654120618788
C        17.99478927884637    6.22190473295144    2.29843791709656
H        18.77886029253273    6.68225592192648    2.88266186651235
C        16.68476238045189    6.30609958693927    2.74605661798012
C        16.36296396368248    7.00848724373841    4.03110726369033
H        16.28590255282561    6.29126354635670    4.84993201882751
H        15.41781913954139    7.54347110255140    3.95220211457858
H        17.14565076038718    7.71980681846776    4.28064152494222
C        14.88361272894580    4.45125770261399   -0.04331252514155
H        15.25040304707584    4.21355650926898   -1.03801008591299
H        14.04727486539677    5.14410228716437   -0.13700514519687
H        14.51637727015204    3.53174771873089    0.41479543165505
C        19.73146436891478    5.52055702522684    0.62851568939988
H        19.94288510365019    4.56545985845597    0.15227422873992
H        20.43281706820571    5.67393614668811    1.44515574091382
H        19.89128323083587    6.30612554000037   -0.11036405995897
C        11.06379993823147    7.09513701082808    2.68185068823464
C        10.14376651606069    6.78434968366848    1.67970200862075
C         8.93686143616200    7.46430075429824    1.65456604389311
H         8.22142896784000    7.23849637767594    0.87696258702486
C         8.63668387728452    8.44301883004872    2.59110644235238
C         9.57609497535946    8.74443694398510    3.56631910556932
H         9.36133605880998    9.51960131258892    4.28799686263113
C        10.79378058709957    8.08535781524159    3.62633899782020
C        11.81748385494397    8.44667607562920    4.66012517550847
H        12.00948047955068    7.61224356963452    5.33455429747383
H        11.48075856913581    9.29401036565947    5.25087205909586
H        12.75685976901643    8.71201767365603    4.17224527149363
C        10.47513882062564    5.76368517431778    0.63264586052728
H        10.50033292844525    4.75868498578378    1.05483471734435
H        11.45401334988254    5.97749879405452    0.20141132927847
H         9.73455859582343    5.78095119332157   -0.16210295853261
C         7.34186589238873    9.19115814595311    2.51902398315060
H         7.06074839577202    9.58083508611590    3.49441866999240
H         6.54364389948987    8.55309382475980    2.14665879797616
H         7.44704100317033   10.03304832184677    1.83458819669566
N        14.33166805808078    5.76739940374034    2.42968449487824
N        12.29210885433185    6.38218754232232    2.74699204235077

