107
CSD_code = IFARUE | q = 0 | S = 0 | Stoichiometry = C45H54CoO4PSSi | MND = 8
C         9.71369970122962    7.56298795263648    3.97801348347520
C         9.93992888738530    6.34980030188486    3.49483719410686
C        11.44248622422881    6.29820038011219    3.52465457198398
H        11.81343329024661    5.64593116215401    4.32002335601439
C        12.15060137917902    5.99284411840287    2.27661523259035
C        14.26029712825463    5.22182479273785    1.46819830014250
H        13.70506231153898    5.36301222096784    0.53411201039991
H        14.54315424461210    4.16800398629107    1.56370388282628
C        15.49490009247525    6.11194349994344    1.50953707361500
H        15.21147336977278    7.15754211339007    1.41427394022936
H        16.16191666994553    5.85093606541494    0.69255621624355
H        16.01962336203864    5.97991203746808    2.45288477200734
C        13.34408380257983    9.19109497787627    3.44222527319456
H        14.37147996734174    8.90498600250448    3.60105873246450
C        12.60671395391198   10.08585095215220    4.25344072852609
H        12.97727591689602   10.57181949152498    5.14441041568465
C        11.37174228221732   10.34826246067215    3.61851851601204
H        10.65692467867153   11.10305247023053    3.90502688404496
C        11.34255035151510    9.60826537395847    2.41318179572496
H        10.59726000685013    9.68812643202088    1.63979511365535
C        12.56899958807166    8.91174025310502    2.29924215308455
H        12.88887805102836    8.37023144377602    1.42529754722639
C         8.07232817862925    9.96737733401516    3.96763159405716
C         8.07284566271230   10.32789919979954    2.63325550572381
H         8.09839923780012    9.55689239607554    1.88006317173283
C         8.02438601058774   11.66724787159970    2.29428770318303
H         8.02905366316995   11.96128516038277    1.25469072892511
C         7.96394845749903   12.64985018795694    3.28027986468219
C         7.93418210658187   12.26205329520760    4.61457929699599
H         7.86664409380447   13.01441110492816    5.38753776789666
C         7.98349107224424   10.92146096471143    4.96057688953579
H         7.94521951668141   10.59420179416732    5.98761141297268
C         7.92340386883663   14.09612648619733    2.89245798995188
H         7.82437733201658   14.73403900979384    3.76683676812689
H         7.08408709466709   14.28542951374349    2.22520379947465
H         8.83534855229248   14.37034038918591    2.36295893294332
C        10.10079039096608    3.44796604834644    2.78632292052133
H        11.07305986654417    3.83226241756455    2.46485762337829
C        10.29204843236986    2.87414708085827    4.18907140573285
H         9.39181889236082    2.36487271995278    4.52303131438994
H        10.52413759587258    3.65908771296229    4.90506037126115
H        11.10697396685436    2.14984103093145    4.20008488898339
C         9.73788438881572    2.33095544498753    1.81125455525093
H        10.48719093148514    1.53972816728319    1.84456216757193
H         9.69449627876547    2.71220093351839    0.79529091252342
H         8.77542633068303    1.89185426378030    2.05672389192715
C         7.22121700269479    4.60159573140702    3.65372217175518
H         6.51416753479583    5.36159124307770    3.31431122149264
C         7.33972338379742    4.75805561575218    5.16763063449914
H         6.37738893163464    4.55815538902717    5.63853869599141
H         7.63461524603616    5.77020605941973    5.42183477332440
H         8.07093522553694    4.06684127821398    5.57837712723341
C         6.61895541829847    3.23176278402733    3.34115071921304
H         7.23781298289093    2.43574594438794    3.74829579377856
H         6.51128870615996    3.07373009342430    2.27297544399971
H         5.63182546645171    3.14870683125421    3.79551496687633
C         8.59959999819712    5.45421007840988    0.88661521326663
H         9.49297790941939    5.16163639539859    0.32635872589044
C         8.46051833739975    6.96810990570095    0.74135285416930
H         8.25092698030824    7.23271488643229   -0.29509242603372
H         9.38863253912310    7.44779789353565    1.03986305353929
H         7.65153631701316    7.33139778916496    1.36953332814325
C         7.39323963720793    4.77169177358517    0.24440968267691
H         6.47799705405891    5.06365957032313    0.75307960469848
H         7.48469534341340    3.68916756676308    0.27999066157081
H         7.30730553456403    5.06697070003830   -0.80130298667575
C        13.57609020816439    7.75013159793947    6.50745726233771
C        14.41613117385295    7.01046649991532    5.67487575776612
H        13.99757170053101    6.45524818118798    4.84584107197341
C        15.78155253754779    7.00394520613803    5.89036685078877
H        16.42509446512301    6.42176864965813    5.24670489408754
C        16.32766388059321    7.74873294397994    6.92395702851556
H        17.39495722506806    7.74678996558695    7.08870632381363
C        15.50093378698138    8.50537186964564    7.73573554298194
H        15.92248345430036    9.09931802725053    8.53353811918428
C        14.13123551618210    8.50872491398780    7.53032329056440
H        13.49753752529224    9.10868731544730    8.16712132599556
C        11.28374297490726    6.09932471765824    6.82985098041645
C         9.94536170365571    5.95059219101800    7.18623168438185
H         9.25254134255956    6.76082711041362    7.00712101248626
C         9.51202835730419    4.77301087058458    7.76728404858500
H         8.47745837605417    4.67203105571830    8.05685070591920
C        10.40011918386034    3.73000766449103    7.97714828039884
H        10.06009983853557    2.81028763113874    8.42952506549790
C        11.72628368293218    3.86741862223470    7.60323164901783
H        12.42082053561099    3.05515817812283    7.76022853349035
C        12.17154603784223    5.04822649276769    7.03427276517780
H        13.21194318029526    5.15031264225614    6.76137304372838
C        11.08330978433332    8.79455910336667    7.43794886961670
C        10.49899937941226   10.00576791754796    7.10003674298187
H        10.44583306367350   10.29308335509074    6.06190686234377
C         9.97517354047514   10.82832041973966    8.08254179358931
H         9.52118501466157   11.77012323255138    7.81049154529543
C        10.02987010864065   10.44350972450562    9.41043289094348
H         9.61719595488782   11.08155046743093   10.17786664172415
C        10.61109227594754    9.23283013411740    9.75516890303690
H        10.65279597709316    8.92883701270950   10.79087742098916
C        11.13567456634547    8.41008623556872    8.77709938549018
H        11.58557362552220    7.46495742154468    9.04863123543512
O        11.73604227737951    6.10239248720138    1.14504085450369
O        13.39785512924165    5.52344656817759    2.55912800442785
O         7.09082792809240    7.57996993570292    3.62065332723595
O         7.99439508225750    8.14348412815713    5.84895731881821
Si        8.87985729949729    4.95431528297931    2.73638831187212
P        11.78227586169180    7.71634171347042    6.14389914743975
S         8.11691976326219    8.22525655838718    4.40579147429716
Co       11.49993994896671    8.24623940805153    4.04159610241633

