42
CSD_code = IFASAJ | q = -1 | S = 0 | Stoichiometry = C13H18N2O8Rh(1-) | MND = 6
Rh        6.07160733262894    7.77513605686755    4.26529722464386
N         7.55903902570193    6.88306063126133    5.39356620372916
N         6.07806902285613    6.36225179400033    2.66743953012261
O         4.61789897546346    8.63181622535871    3.15986216655433
O         3.33312434221282    8.24436909548674    1.38840138061665
O         5.80166107678283    9.13145574545162    5.72260859675200
O         6.15291509356545   10.31716850986333    7.53231778707022
O         4.88120321468886    6.41640487786128    5.24318736403681
O         5.07646013635602    4.56813466472550    6.45354999319107
O         7.48337788291613    8.94386387128638    3.37419301163803
O         8.91122410429385    9.45995720942952    1.78809346611444
C         8.36087540248952    6.00458568582963    4.52641058178108
H         9.20395368552140    5.60660633921769    5.11614544964800
H         8.78557987160579    6.63664153023260    3.74091436307243
C         7.66859123545135    4.78403780030084    3.90634642780351
H         8.41647148843183    4.32928185445815    3.25008180113425
H         7.45369177399101    4.06051688489690    4.69514993302002
C         6.35457939825114    4.99094175744570    3.12413890488165
H         6.35557586234444    4.31879916599048    2.25271840837124
H         5.52753523802188    4.68361634163117    3.76459725548480
C         4.66593240343180    6.43669336842557    2.23743036073175
H         4.03861020895664    5.92559991421980    2.97239668223627
H         4.52041416036170    5.97209914223676    1.25473174782197
C         4.14301676998280    7.90973983940947    2.23431986828854
C         6.51201803122249    9.49367595291539    6.70515471347834
C         7.91774715783168    8.86213871329110    6.95839486647465
H         8.60458919007496    9.70632394450106    7.04693380042561
H         7.86661698191307    8.40245454554899    7.94979649025689
C         8.49111333091794    7.90471973588175    5.92233295925171
H         8.83625737810205    8.49085303416093    5.06604416276052
H         9.35720215062294    7.38979346105120    6.37006413914282
C         6.90833003670585    6.12202672274318    6.47043944648735
H         6.71769552471429    6.77894566749422    7.31987669136738
H         7.52760007024443    5.28222105403086    6.80617913353781
C         5.49415988437638    5.63430560935969    6.03159864584235
C         7.87492832218869    8.93110122393457    2.16311997676236
C         7.02755121496677    8.14092932930291    1.13747960759074
H         6.03688385066910    8.58730211874908    1.06769363058216
H         7.51909363444063    8.23024976773021    0.16640821011549
C         6.95213205072827    6.66439847164816    1.51760999435074
H         6.59179777267214    6.08662798477358    0.65153666860266
H         7.96437571130089    6.31635435699619    1.74453835422552

