47
CSD_code = IFAXIW | q = 0 | S = 0 | Stoichiometry = C12H16CdN2O12S4 | MND = 6
Cd        5.50822970820945    4.13617894178232    5.33008446225018
N         5.28709771865842    3.39324344548106    3.38394337707393
S         6.75356871034894    3.56732721928662    2.77948246170449
S         4.79394852059871    1.89540642833184    3.12716916360218
O         6.97359374935430    4.94317281961273    2.42939737762356
O         7.76138349332998    2.96110871575933    3.61702110666060
O         3.35859207433132    1.85421312816112    3.02185923373131
O         5.35973890886738    0.95230787137276    4.06460587724466
C         6.58949729471326    2.51661997803567    1.33270244986310
C         5.56477692661024    1.61471998604666    1.53094750374869
C         5.26123716387297    0.65863337674482    0.58225710578230
H         4.45511804624887   -0.03617471787627    0.75480139679521
C         6.01257145627130    0.63060998108634   -0.58699728660084
H         5.79056554073738   -0.10361981550145   -1.34639663352375
C         7.04397166923508    1.53679313291690   -0.78662760577464
H         7.61773999185147    1.50156034146573   -1.70017131493721
C         7.34739872478698    2.48993506240709    0.17879451727682
H         8.14552662971258    3.20140353137745    0.04041045591960
O         4.99500110945243    6.04852841632818    4.32946208834934
H         5.20517302344918    6.71582898047667    5.01802517511479
H         5.71075556290815    6.08848532098762    3.67263728801456
O         3.35624869989474    3.16736209680893    5.45104387086357
H         2.80544638935167    3.91294276645991    5.74094368702840
H         2.99801227002785    2.82326401899358    4.61293887538872
N         5.72893517380959    4.87965746623543    7.27603942155852
S         4.26288464207248    4.70472704141917    7.88123364521041
O         4.04366118280031    3.32861845725886    8.23083949430078
O         3.25436641029477    5.31094961745652    7.04456886763765
C         4.42721829465096    5.75494993746553    9.32832991173783
C         5.45127090414389    6.65754412658476    9.12974314531545
S         6.22176830002487    6.37752198897027    7.53321609355091
O         7.65714124978940    6.41894438537572    7.63829223608517
O         5.65566644687256    7.32074316140219    6.59608987960186
C         5.75459742275399    7.61369877118928   10.07845120749390
H         6.56011471110096    8.30912850373257    9.90560070676660
C         5.00376908846786    7.64106857001553   11.24805485058838
H         5.22556596586107    8.37540116285818   12.00742239154533
C         3.97311350754206    6.73411131265072   11.44806748242867
H         3.39972765196068    6.76882494313913   12.36189674692936
C         3.66987669730322    5.78092336222901   10.48263271727334
H         2.87226539348277    5.06892339512259   10.62128349434660
O         6.02156878373240    2.22445993398746    6.33131597002360
H         5.81096656294125    1.55726522987017    5.64269510564675
H         5.30611081792618    2.18445936676632    6.98856336175892
O         7.66005622715315    5.10559805080313    5.20934993538816
H         8.21068226759022    4.35981148797050    4.92066193947686
H         8.01807891490043    5.45061870095680    6.04701676213189

