107
CSD_code = IFAZOF | q = 0 | S = 0 | Stoichiometry = C39H63BCuNP2 | MND = 3
Cu        5.96875934084185    3.86459345422542   19.80459187672649
P         6.46072468363394    3.40129461001167   17.64349976725023
P         7.74759649941859    3.81231922577117   21.17411047224098
N         3.94508672630288    4.47201361243977   20.03194385390544
H         3.68876377818250    4.81709672169006   19.11239612229897
H         3.47145040649309    3.59548844093349   20.22239897232866
B         9.42819770936011    3.22280046858320   18.57768153898913
C        10.47216892708128    2.01032662488462   18.91028562745052
C        10.34282053074867    0.69581135983474   18.46026621942198
H         9.47145990526137    0.40177465579940   17.89047915319693
C        11.29778247459115   -0.27400260325032   18.71490906850280
H        11.15166205445752   -1.28200468548372   18.34763137250193
C        12.43669015114820    0.04002286167882   19.43236259890280
H        13.18412953355522   -0.71432608951369   19.63654628354952
C        12.61158806884462    1.34155856008792   19.87008956626950
H        13.50671914133349    1.61169732601510   20.41549973368706
C        11.65104250900372    2.29825472373587   19.60294022026562
H        11.83729383096846    3.31400365032636   19.92755177834719
C        10.32283552041143    4.13659750092551   17.56364546170014
C        10.79248170992783    5.42244281347070   17.82864472487782
H        10.53321347414735    5.91612195577144   18.75623692012557
C        11.60337530144261    6.11417495782911   16.94386265421815
H        11.94009833172541    7.11281520583437   17.19215932585131
C        11.98815526325571    5.53380145523166   15.75016655749254
H        12.62027321916819    6.07046810253530   15.05609679443834
C        11.56508999657828    4.24628939988806   15.46705003523226
H        11.87308519785874    3.76667135480129   14.54701382733709
C        10.75708892245146    3.57021482378527   16.36125871868703
H        10.46897343752360    2.55360457223821   16.12632260076380
C         9.08093449881693    4.09089153204077   19.96032339536787
H         8.80956334221215    5.09916079033860   19.62788206053643
H        10.00487056466077    4.18828670240393   20.53565817328391
C         8.08453020930091    2.59548789207451   17.80544958888926
H         7.81170994166529    1.71654516677701   18.39480809785799
H         8.37084917826592    2.24344808627666   16.80958569682043
C         6.67824776077688    4.82494565933053   16.40507958981603
C         7.59273849272956    4.51892858054830   15.22439965309735
H         7.17497134362003    3.76350852180524   14.56615506736823
H         8.56918918466345    4.19115050950267   15.56956969369575
H         7.73590911381979    5.42884588382980   14.64146723361005
C         5.32754653539261    5.33563991461297   15.90123121930049
H         5.46183544696044    6.29996299195981   15.41117033255678
H         4.62946883553713    5.47440621393531   16.72625166069859
H         4.89001345095191    4.65740694073065   15.17279744029557
C         7.32861208628981    5.92566110206263   17.24727282530339
H         8.34317888217683    5.63935657716881   17.50792662204022
H         6.76321064448266    6.09900437711426   18.16534874779587
H         7.37156045236278    6.85989999468944   16.68826252748535
C         5.37023919899363    2.02841229018271   16.86654722435606
C         5.52051230596643    0.79784562844535   17.76824823637338
H         5.46213242236045    1.08439417349495   18.82068628207188
H         6.46437783038910    0.28801847157199   17.59738310770093
H         4.71851077131349    0.08799795824297   17.56669271428957
C         5.73212541247855    1.64747628875774   15.43574420998506
H         5.20751447648698    0.73318764472278   15.15670223198853
H         6.79976955745590    1.46436723689458   15.33884362718003
H         5.44158601449608    2.42389783605272   14.73254169214486
C         3.90023078250539    2.45248817513822   16.94111061240469
H         3.26564460296279    1.64879467146517   16.56724360221997
H         3.69495531363614    3.33822830160853   16.34984748525865
H         3.62072997315102    2.64690395725421   17.97556551439307
C         7.89926814129579    5.38538552242412   22.25169937098109
C         9.32970706764333    5.83814830138362   22.53685244009816
H         9.83659957184532    6.14878352946981   21.62740683337841
H         9.91618231793822    5.05597615259669   23.00975952536810
H         9.30408436274440    6.69470949753518   23.21085724217847
C         7.18663680302916    6.47755156828395   21.44698207910088
H         7.19944419275471    7.41832655806973   21.99603093422061
H         6.14708184994065    6.20371926647863   21.27488951211041
H         7.66824274962633    6.64708813245530   20.48582636996653
C         7.14281426515172    5.21710835274227   23.56884367490614
H         6.95804256913209    6.19452012342845   24.01488940101443
H         7.71959388239577    4.63356677249371   24.28129631037094
H         6.17949768277541    4.73984460024215   23.40251906965322
C         8.21240880881746    2.26177793471974   22.16889682488380
C         8.12449661435348    1.13704172597859   21.13625391369564
H         8.89587528896656    1.25228357489018   20.38155965998482
H         7.14596526631633    1.14411993481860   20.65286908296708
H         8.25895321366098    0.16892685917176   21.61735340586416
C         9.61487868520044    2.29024541869360   22.76349424467185
H         9.85201317877198    1.30857227658788   23.17304075192536
H         9.69089798618051    3.01407493043397   23.57195990857267
H        10.35497568252107    2.51629619558426   22.00034473574932
C         7.18341454846578    1.95855446286298   23.25988916970624
H         7.33337724236559    0.94157769748808   23.62207713206587
H         6.17289862824370    2.02471559135043   22.86088739880006
H         7.26723019835333    2.62588043249673   24.11037591415483
C         3.68421278830077    5.43473116372998   21.04344362727196
C         3.50980891651406    5.01272339186065   22.36333783241439
C         3.31776314427106    5.96108942505529   23.35374240103367
H         3.18852485036456    5.63452281479530   24.37551681431255
C         3.28868049113970    7.31770777326926   23.06326867514682
C         3.45546736373283    7.71408798080327   21.74504749276248
H         3.43316609251040    8.76635232256917   21.50102378391774
C         3.65253388114968    6.79438794051218   20.72651861722825
C         3.54136284891381    3.54997519162016   22.68982913694668
H         3.54227117434701    3.39831460503375   23.76560859594655
H         4.43792823045697    3.09080909948274   22.26980845827270
H         2.66937594096422    3.03717705373204   22.27835801201682
C         3.10532032873222    8.32726765559589   24.15484789620653
H         2.41780701242483    7.95773942330616   24.91244787705107
H         2.72303479482051    9.26444313363301   23.75800288532253
H         4.06084312652364    8.52933505684001   24.63994158332262
C         3.83511952560831    7.25378758941964   19.30978371259805
H         3.83232739390864    8.33898597752872   19.26226159835842
H         3.02811330354661    6.88919340374644   18.67070896731430
H         4.78318272075071    6.89869845368921   18.90590911343887

