106
CSD_code = IFAZIZ | q = -1 | S = 0 | Stoichiometry = C39H62BCuNP2(1-) | MND = 3
Cu        2.78916906379240    8.34093283847284   15.32521166367853
P         4.61022493444604    9.25504097225333   16.35600659174241
P         1.05571027739315    9.49436998165302   16.27096421301644
N         2.78812488929894    6.71395818419429   14.27147737192635
H         3.08303401936362    5.94077206053134   14.85958964894763
B         2.90873756619032   10.96109380004758   18.28071793128838
C         2.41408827553589   12.51359594722095   18.39736473944746
C         1.39958807545906   12.83234454786541   19.30501166443172
H         0.94493885910706   12.03633174667992   19.88110175525815
C         0.96536062100736   14.12751561316058   19.51399911863616
H         0.17230148631825   14.32610252474040   20.22524875497348
C         1.54674157241134   15.17515447929622   18.81978829111883
H         1.21220282925737   16.19298356327240   18.97680068125807
C         2.57121186118971   14.89991531648126   17.93330541793535
H         3.04832824029044   15.70930461977450   17.39288625999092
C         2.99315859396437   13.59569679093445   17.73526709513960
H         3.80642624289479   13.43011841136688   17.04093884097760
C         3.45587193756419   10.70796044483357   19.79972179035285
C         2.88073391742845    9.84165981647545   20.72923503081153
H         2.03059661981884    9.23507563181700   20.44607259830876
C         3.35369382461528    9.72214752294843   22.02546244320134
H         2.87803730134957    9.03116787430371   22.71185852642785
C         4.42810933022899   10.48198773696377   22.44919883475329
H         4.80324467873511   10.39030991544407   23.46082419305672
C         5.00710837043463   11.37265648103792   21.56102408478879
H         5.83922215940129   11.98881540633723   21.88072779063956
C         4.52164555726033   11.47983187647629   20.27154179600186
H         4.97666272499813   12.20386373719196   19.60749280581632
C         4.13358447976661   10.82929096870029   17.15939151879162
H         5.04589675956890   11.32003169271328   17.51341628267036
H         3.77859098951942   11.38831623477922   16.28995399992201
C         1.64340884384797    9.92891272992041   17.95109988483807
H         0.76711927382441   10.17980392517755   18.55830443405742
H         1.99744172651805    8.94798126282527   18.28023674374660
C         5.62225561207940    8.29120055351798   17.64944609111187
C         4.55039169400857    7.62239382596836   18.51382968285654
H         3.87657050845907    7.03316617068833   17.89120603036250
H         3.97673367554857    8.37444990982272   19.04692133513237
H         5.00894434602562    6.95884873817870   19.24845292787317
C         6.51575470633871    9.13628722945673   18.55164677085035
H         7.00816809062366    8.48795729582087   19.27857211373521
H         5.92371696411711    9.86324583632767   19.10031610538224
H         7.28619002868672    9.65752168821614   17.99071654958824
C         6.43652191500038    7.18430448837430   16.97980725581857
H         7.33130391210771    7.57609658334506   16.50185728981371
H         5.83131658098817    6.66979990920072   16.23494137450167
H         6.75332279535440    6.45390740177584   17.72642956707084
C         5.78508499078563    9.82188610718144   14.95335011398111
C         6.05981559884230    8.62348759917790   14.04005242425817
H         5.13346590901941    8.08884770043812   13.83218126065883
H         6.77061748747751    7.92812542037244   14.47397656104155
H         6.46971162160228    8.96168435848558   13.08776715218464
C         4.98601483627356   10.83271232091167   14.12345706068598
H         5.46116763594077   10.97945310408120   13.15311193222763
H         4.92271623677396   11.80214050531120   14.61257062647686
H         3.97819484220924   10.45586233214023   13.94867676971875
C         7.09380137862313   10.46925933569100   15.39667713205037
H         7.59802759807862   10.90468204676990   14.53206734105162
H         7.76810224395926    9.74102139628006   15.84115187567114
H         6.91106918880562   11.26498474389120   16.11653672393191
C        -0.19196594153713    8.08243112147547   16.61704238234177
C        -0.52369219241548    7.41533469289406   15.27945858468990
H         0.40245678747395    7.16949145873370   14.75680492314426
H        -1.12688258139643    8.05215035177503   14.64098778013368
H        -1.07924576653248    6.49157594092095   15.44929849630295
C        -1.46768460837059    8.47465478339830   17.35654980660199
H        -2.01774195006614    7.57495375609618   17.63948185288100
H        -2.12181142691629    9.07909158976458   16.73294255537333
H        -1.23772912031829    9.02713937481853   18.26576377235744
C         0.55927960333165    7.03737715930808   17.44818740417109
H         0.66651043567936    7.34135502604546   18.48702050872112
H         1.54797011851777    6.86807872534794   17.02015607022397
H         0.01874002726531    6.09016553822237   17.43235108228476
C         0.08704777464307   11.01781178996473   15.65194970116217
C         1.18459315818322   11.94749751217307   15.12827890351959
H         0.74687736810821   12.83397889980221   14.66717986160378
H         1.79102815334529   11.43686887701355   14.38069452241018
H         1.82100206033026   12.26981767815410   15.94652175604708
C        -0.81690801943933   10.65521603289545   14.47372716659994
H        -1.14308810331781   11.56600511745009   13.96824631255017
H        -1.70806304487034   10.12274589500689   14.79789371163447
H        -0.27574214649243   10.04354577342694   13.75471608989089
C        -0.71049119905319   11.76696522525451   16.71496009999622
H        -0.05929866079381   12.09495335654864   17.51969098170165
H        -1.51025719711129   11.16114195065898   17.13037864589059
H        -1.15990257440526   12.65440479356758   16.26570471132391
C         3.15909737200245    6.50314890555053   12.99060747903796
C         3.92738369666978    5.37199606192643   12.60296070913061
C         4.27410674404232    5.17363786894547   11.28169962410900
H         4.86120141894919    4.29911482886818   11.02015307292568
C         3.90360616697147    6.05957544411157   10.28103658363602
C         3.14871570575350    7.16558425841578   10.65352078242845
H         2.83670901984826    7.86758597026486    9.88765102017482
C         2.76699705930157    7.39584578414930   11.95794003281454
C         4.38339190491234    4.37914138887864   13.64043672499758
H         4.99544911684325    3.60503975955303   13.18000296273423
H         3.53403046873955    3.89354350244513   14.12756570587146
H         4.98110502331426    4.86757237312435   14.41417213753792
C         4.30021022129549    5.84319505982901    8.84701270304236
H         5.01756628234774    6.60068481378927    8.52214896395452
H         3.43193361055166    5.90685209100985    8.18882903042243
H         4.75894839718732    4.86401194421856    8.71703677717540
C         1.89489242579746    8.57568001428065   12.27105753730471
H         1.97329418007271    9.33760461017287   11.49601532422583
H         2.17323700580819    9.00892259299990   13.23430083356823
H         0.85152692502265    8.26373904938291   12.34700144539443

