97
CSD_code = IFAZUL | q = 0 | S = 0 | Stoichiometry = C34H58BCuOP2 | MND = 3
Cu      -13.10692211010957    7.62725730749374    6.72773646392951
P       -11.40228209126983    6.80962292802451    7.91273082244253
O       -12.85255652951581    7.82061760140365    4.63331717942679
B       -13.15258781660528    7.58178103069006   10.40129547595089
C       -13.16324748424085    6.32748625949418   11.44979406902660
C       -14.25605427193667    5.49144243848235   11.68339190942495
H       -15.16350305275470    5.61266371366161   11.10760684645909
C       -14.23438688296494    4.48848343361889   12.63757505200154
H       -15.10627470489151    3.86238076064536   12.77934111922109
C       -13.10706492395213    4.28555191106691   13.41124042285887
H       -13.08387623629811    3.50151932762768   14.15564410123777
C       -12.01481534793494    5.11574722046186   13.22772461873411
H       -11.13052600300593    4.98700363193516   13.83862895008207
C       -12.05508910950572    6.11500132925639   12.27425412327473
H       -11.19707980146437    6.76837521888465   12.18442221256839
C       -11.73523406770547    7.60445842412700    9.51795509532512
H       -10.91511681293769    7.31783309856234   10.18081960673864
H       -11.56982134955134    8.65224918692618    9.24147881626319
C        -9.71428899823598    7.57990106910353    7.44862592119884
C        -8.76875630381011    7.80965077294592    8.62539466728844
H        -7.81745291479669    8.19049360480968    8.25288010982465
H        -8.57344378432060    6.88943790801464    9.16910672406178
H        -9.16995670032195    8.54321455721515    9.31903294403937
C       -10.07886434276215    8.93185683050424    6.82358644659156
H        -9.18054030171074    9.44990328547143    6.48901786450517
H       -10.58718126967712    9.57443866002650    7.54060746158340
H       -10.73582802475683    8.78962575083278    5.96431192422706
C        -9.00253016199227    6.75029044432273    6.38117812276115
H        -8.55866054872328    5.85528796760814    6.80878765129621
H        -8.19895597026137    7.33587117990572    5.93338682438830
H        -9.69309315570705    6.46576985181397    5.58909927468434
C       -11.23531889245797    4.94563915791248    8.21912989832482
C       -10.20909561065712    4.56486396660145    9.27796826987729
H       -10.27161095866827    3.49497038196671    9.47550487759904
H       -10.40964356696400    5.08626450051840   10.21054478460085
H        -9.19521770965337    4.78491244216972    8.95042165427946
C       -12.63230172904991    4.54160049957897    8.69163898866469
H       -12.86073037590086    4.99984610074554    9.64905993210292
H       -12.69863701473331    3.45991356372861    8.80343126101863
H       -13.37708083376912    4.85738644661312    7.95882070417837
C       -10.96680651317382    4.19997897800843    6.90866128446404
H       -11.19968233765925    3.14328485541433    7.03854860443989
H        -9.93137438177896    4.27029753825726    6.59281995552134
H       -11.60558715442873    4.58950867958733    6.11563231736273
C       -13.76280865081429    8.63459115256375    3.89664197523687
H       -13.39844080357793    9.66250565978215    3.96493846526274
H       -14.75893472504104    8.58178403498784    4.34982126627064
C       -13.77724787576087    8.10260049685423    2.45359424917349
H       -14.74403826230559    7.65519394089729    2.22508856556819
H       -13.58380211638688    8.89016442844581    1.72950945247828
P       -14.87217722543749    8.35151383998878    7.88464521367081
C       -13.16730561014630    8.84382029951765   11.44019391531685
C       -12.08451848884468    9.68956690498722   11.68470186172150
H       -11.16585059333328    9.56818351092675   11.12692614494144
C       -12.13017286994405   10.70227100459724   12.62774003990954
H       -11.26536976237319   11.33606445873389   12.77821626797489
C       -13.27251496485663   10.90523748177888   13.37901736711164
H       -13.31462262971448   11.69715500360760   14.11417151763744
C       -14.35510591158138   10.06463357878371   13.18584052584027
H       -15.25070591603816   10.19286976728045   13.78016887324070
C       -14.29093826319121    9.05593200061904   12.24363208119046
H       -15.14178953041645    8.39413350978854   12.14679201208689
C       -14.55230696488880    7.54956670886440    9.48874432637064
H       -15.38561341770896    7.82480198248443   10.13951625506575
H       -14.70072559073935    6.50097199519157    9.20588415243195
C       -16.55513853370366    7.57461864792910    7.40276110443693
C       -17.48641168625508    7.29104896244702    8.57958239962653
H       -18.43934576410246    6.91933855370196    8.20218119152750
H       -17.68122137585130    8.18872433658644    9.16011636771045
H       -17.07378700037925    6.53360405487425    9.23974544270736
C       -16.17279092251335    6.24870992315296    6.73448838691496
H       -17.06361849055650    5.71639730332595    6.40258757975290
H       -15.63225177033904    5.60250018272402    7.42411041414031
H       -15.53560837028518    6.42823819126763    5.86700963316700
C       -17.29923166224630    8.42483410374804    6.37391318344290
H       -17.75742136631749    9.29233342084271    6.84096427972327
H       -18.09555658263779    7.83661689205713    5.91632231606838
H       -16.63099216243997    8.75974684103202    5.58250392810265
C       -15.04928584945576   10.21098772679835    8.20086713824566
C       -16.06272864606675   10.57608042415724    9.27741335225895
H       -16.02477221227839   11.64939033495687    9.46189752874052
H       -15.82834105691200   10.07073850723486   10.21090525366308
H       -17.07709585095724   10.32499998088936    8.97433314233867
C       -13.64710931270981   10.61872182008502    8.65507591896922
H       -13.40231725066211   10.15337252395016    9.60502888578885
H       -13.58553347021392   11.69960964822877    8.77653935827788
H       -12.91143184827518   10.31428834815231    7.90803507285006
C       -15.34239531973363   10.96272377848087    6.89917256307565
H       -15.09418215805776   12.01621559382035    7.02584302904003
H       -16.38675589637457   10.90582719441132    6.61105554322333
H       -14.72919551245825   10.56784391418598    6.08901779910035
C       -12.66593838460103    6.61023131363904    3.91904482850143
H       -13.48344536335475    5.90697284779119    4.13028523788199
H       -11.72173719825820    6.17554301457266    4.24808042443894
C       -12.67926834117625    7.03498207000567    2.45517337602019
H       -11.71764906409278    7.47438420304293    2.19002755223973
H       -12.89037325102892    6.20852976519333    1.78207788566644

