21
CSD_code = IFEDOO | q = 0 | S = 0 | Stoichiometry = C6H6F6N2Ni | MND = 4
Ni        0.64167792772878   16.78634612962281    1.79607320494596
F         2.36276878528935   14.78409141685359    1.26322704276901
F         2.02564031366772   15.38429906069971    3.31868497692072
F         0.72017660593526   13.96866118413041    2.37381224686566
F        -2.03028389962993   16.46229684292197    2.13672762575690
F        -1.27882685613194   14.76988697359564    1.06193842580846
F        -1.18062154747157   16.71653026012975    0.15762755423396
N         2.39654488574745   17.54322431681608    1.69187552146645
N        -0.16962565048709   18.51376017683532    1.98603673113416
C         1.36103276316558   15.12373436818317    2.13094113460785
C        -0.98612933667600   16.04616192740164    1.35743838675720
C         3.54182010694939   17.57732705446909    1.65790020747930
C         4.96341946360734   17.63491086717070    1.61736524258654
C        -1.01007646990659   19.29184342681190    2.03243234969241
C        -2.04607056478186   20.26580717642574    2.09504888875435
H         5.30173928105378   18.66457056747782    1.72778360617274
H         5.31134755854828   17.23287811715360    0.66602690979543
H         5.36318073406307   17.02824190377151    2.43000225307737
H        -2.06603470849735   20.71891782931460    3.08574460277859
H        -2.99934217724368   19.77224136055293    1.90389166290554
H        -1.87703721492512   21.03496903966380    1.34202142549396

