131
CSD_code = IFEFUW | q = 0 | S = 0 | Stoichiometry = C54H70N6Ni | MND = 6
Ni        6.83537456057153    0.56057735130157    0.76212278013597
N         8.72010223937119    1.23507454150682   -0.04741734604386
N         5.75981508524688    2.42785897217110    0.90211651784528
N         7.26087617273369   -1.42507304532151    0.02285350697784
N         5.52184258250571   -0.29517192574193    2.24331034642887
N         5.74492959194761    0.52202763754766   -0.86853836916126
N         7.94548809488554    0.69804532530246    2.37661660917260
C         8.94895611806096    1.82005880683811   -1.21355247696890
H         8.20706241749765    1.64604618527990   -1.98342254810713
C        10.06307163637806    2.59318522845696   -1.48591922567019
H        10.17930967458465    3.00591837638260   -2.47395212130506
C        11.01756807329669    2.81035444212955   -0.48849920576690
C        10.76497522890158    2.22068594559868    0.74144865134212
H        11.43491330820722    2.36800402241272    1.57490451375433
C         9.62999902700732    1.43856212461849    0.93026381548201
C         9.27881786379824    0.80298248949020    2.19383821333657
C        10.19194667850131    0.30727184921486    3.11107585820045
H        11.24616250720771    0.40589362929186    2.90156046789012
C         9.75354880631907   -0.32935622256240    4.27153642585116
C         8.37395023322163   -0.47689295321704    4.42057072351750
H         7.95754040024581   -1.00112499959390    5.26454055451722
C         7.51182914359044    0.02722567503965    3.45938613519720
C         6.06290404972880   -0.17416167692044    3.47258353106467
C         5.29884898100823   -0.22131965158299    4.63269189201309
H         5.79318172720062   -0.09530514153946    5.58390411991909
C         3.92408086819765   -0.40511945833224    4.56378264669607
C         3.38112898928245   -0.52705426435240    3.28409796753613
H         2.32555207638080   -0.67958190644078    3.13322996687702
C         4.21045006464653   -0.46449358461227    2.17786743703139
H         3.79031963691883   -0.57008125490482    1.18455506972467
C         8.27662512418171   -2.21797800833637    0.32564350254202
H         8.73073344117167   -2.06394026591036    1.29743870708493
C         8.75879007900771   -3.21210054629143   -0.50818325546648
H         9.58379707650548   -3.81721075538277   -0.17129434677187
C         8.16481567737465   -3.41868234547669   -1.75379134423177
C         7.10420952315038   -2.58173367652209   -2.07491117549717
H         6.60645367978524   -2.66062727666917   -3.02938044650955
C         6.67736479534355   -1.60915751717792   -1.17844363804722
C         5.57845139027572   -0.68146990965488   -1.44699463861693
C         4.44083862714659   -1.01532637158583   -2.16467957069859
H         4.37611594861115   -1.99698373247575   -2.60359717927405
C         3.39314692388995   -0.10091451879202   -2.28317856240389
C         3.55004328600194    1.11721762923809   -1.62375500379086
H         2.75789701392119    1.85030982578565   -1.62479286984050
C         4.71854570300968    1.39743790708030   -0.93267399170269
C         4.96229805796611    2.61473529990005   -0.17018783333158
C         4.46527724618750    3.86722049839005   -0.52977505561664
H         3.85939648114463    3.94007437794988   -1.41793124263295
C         4.76615734982475    4.98146838341058    0.23320556271004
C         5.59977806165085    4.76907344093858    1.33945200052055
H         5.87576725188601    5.58471705474210    1.98946255353380
C         6.06749788092425    3.50113424744480    1.61838512759678
H         6.70977149311510    3.33100577108700    2.47382256221752
C         3.60818250325821   -1.60536235657978    6.71829694662777
H         3.53059216459816   -2.55173792978870    6.18674750553342
H         3.01597426424848   -1.67090412011289    7.62873303221297
H         4.64726193278258   -1.45624470279295    6.99876772103071
C         3.24788807396913    0.87685883640647    6.58019148529134
H         2.91045021922476    1.69799492124929    5.95099103219702
H         4.28315895680132    1.06177055810675    6.85358206807092
H         2.65030751682217    0.86920696039929    7.48950859661722
C         3.09705742019625   -0.45753886189437    5.83637381855078
C         1.60989017030327   -0.68983619659403    5.55861447558666
H         1.06475323474546   -0.72273611403084    6.49993451440518
H         1.45180360969194   -1.63542470508436    5.04483702543682
H         1.19448513668855    0.11579388050161    4.95760850364568
C        10.76332742878406   -0.85739126435430    5.27560766067854
C        10.09650071927650   -1.46324397192740    6.51325050088496
H         9.47546891793775   -0.72775415423597    7.02000365648716
H        10.86131620190248   -1.79753241396629    7.21165445960092
H         9.48609874371355   -2.32356543339565    6.24840196759192
C        11.61189451099964   -1.94488236628247    4.60123430527062
H        12.14623667375630   -1.55007085211670    3.74108225834128
H        10.97652378668442   -2.76074179130468    4.26209257756397
H        12.34089171600566   -2.34357929150211    5.30394664924083
C        11.66743704371129    0.29512951264111    5.73552965406622
H        12.22113012615371    0.72089508771974    4.90329282577055
H        12.38412923832666   -0.06101309235981    6.47283319276370
H        11.07020682786908    1.08456441091363    6.18756255423023
C        12.27010101414097    3.64491213352759   -0.69184092696032
C        13.50246520868090    2.77990197157396   -0.39207470444898
H        14.41224045964863    3.35534128390244   -0.55065212794384
H        13.52282004774223    1.91306492470341   -1.04968007267795
H        13.49822480870847    2.42784456992603    0.63586070594188
C        12.22942812670687    4.84187987210012    0.26843900023663
H        13.11427876601402    5.46089197607868    0.13448784233446
H        12.19422210444167    4.51559002505296    1.30438794947395
H        11.34856513349472    5.45021707744194    0.07337850548142
C        12.39358178582587    4.17671122530761   -2.12179509419131
H        13.30941303387506    4.75699003524109   -2.21633747679718
H        11.55730425860187    4.82584237527978   -2.37084175329834
H        12.43644898038035    3.36026255731904   -2.83922823422276
C         4.25203229191127    6.37589127317328   -0.07688946975856
C         5.44980714859128    7.30238601506812   -0.32793085229483
H         6.04133427050170    6.93367016296445   -1.16357331762262
H         6.09375730584972    7.35939101800573    0.54542749435449
H         5.10452444242118    8.30677372951792   -0.56465579700039
C         3.35037732522296    6.40665874034465   -1.31361112781562
H         3.89034391493411    6.07978907900817   -2.19936748407071
H         3.00496092222174    7.42401840503792   -1.48674574617329
H         2.47647878057035    5.77390166496817   -1.17505672269996
C         3.44209069241436    6.88669124215891    1.12298367432507
H         4.05396198943585    6.93993862180437    2.01922775946815
H         2.60367616226350    6.22197451254616    1.32173700463171
H         3.05294387398687    7.88154863910180    0.91611680234684
C         2.11217317799098   -0.39300499268317   -3.04498453676778
C         0.93710174821191   -0.39741335075771   -2.05670390220863
H         1.08875307698815   -1.16081770191364   -1.29604654343762
H         0.00640027547275   -0.61000991138875   -2.57900804582999
H         0.83827975985062    0.56361119451752   -1.55881985450590
C         1.89522400757272    0.69718474432042   -4.10400776532511
H         2.73811316678680    0.72662992427019   -4.79166097733081
H         1.79317617229242    1.67806880651344   -3.64808307600315
H         0.99130652704078    0.49230751107340   -4.67415745458947
C         2.14997311078768   -1.74808057114153   -3.75625114765713
H         2.24549218217842   -2.56324539206685   -3.04258996158792
H         2.97605088962521   -1.79387496773622   -4.46258906776372
H         1.22442495507613   -1.89437925182566   -4.30979719360235
C         8.62266925171276   -4.48027108182102   -2.73849486248869
C         9.08827447766527   -3.79049958361175   -4.02849267823242
H         8.28264651230533   -3.22193660444940   -4.48507252863834
H         9.43357065285259   -4.53150860154989   -4.74659680310250
H         9.90782961705604   -3.10739453987051   -3.81465138950037
C         7.44705729837427   -5.41845419704056   -3.04562089354074
H         6.61826285505249   -4.87987603262113   -3.49681810806182
H         7.09129776226377   -5.88811977419082   -2.13073796951324
H         7.76097259964138   -6.19925560353778   -3.73531305727461
C         9.78029941502342   -5.32165639843513   -2.19568998984891
H        10.65095486438279   -4.70266021475507   -1.99171567805175
H        10.06447537432742   -6.06884737575154   -2.93411885522688
H         9.49145233284303   -5.84123974338612   -1.28481879750130

