126
CSD_code = IFEHAE | q = 0 | S = 0 | Stoichiometry = C44H72N7OScSi | MND = 5
Sc       -4.30752249445852    4.24750801902329   10.93584929328563
Si       -0.85573951636651   -0.38342196285840   10.51365158843874
O        -2.93614502205202    3.06416763773397   11.36365397277613
N        -4.26413767244918    5.59486909951582   12.62299565001637
N        -6.38064197995971    3.95047637532531   11.57073598209415
N        -5.29538589338938    2.50370736262456    9.38819503675428
N        -8.17258037196656    2.90898598384541    6.99146027753346
N        -3.65361760650265    5.18253520970431    9.21618246521537
H        -2.73458670211502    4.76425506753425    9.04324915931438
N        -3.88361139765525    0.06671057818575   12.58589325500129
N        -2.96114098563703    0.43845229164101   12.03274461613337
C        -5.07981191101727    7.52009172952239   13.93240448603089
H        -4.02185304015352    7.72785025633651   14.06971086558808
H        -5.52534205655386    7.33989645602174   14.90984449238815
H        -5.56389464960881    8.39529933652932   13.50255688466702
C        -5.29148266133620    6.32599442435710   13.02393497424771
C        -6.62006127452113    6.04755895291058   12.69878905933698
H        -7.34449356177340    6.76402330919490   13.05913665384271
C        -7.13902366769714    4.88287054144248   12.11794659027071
C        -8.63885109282609    4.71707119443925   12.19463069530624
H        -9.06582955256282    4.60288966724078   11.19850737436778
H        -9.09991536171079    5.57745054065549   12.67026027682165
H        -8.89287500340713    3.82763188747900   12.77077614448712
C        -7.03969203768298    2.72645081214853   11.14505238581113
H        -7.88251591309041    2.93904465357593   10.47146293297271
H        -7.44353505341924    2.18513873848178   12.01472768354560
C        -6.04831935070912    1.80368751966961   10.43755740614309
H        -5.32415146053613    1.43171880840065   11.17254642183174
H        -6.59294590054915    0.93175888642404   10.03836478562247
C        -6.14335061953406    3.11055176373459    8.35077389425975
H        -5.47513453472800    3.63953899450532    7.66806181146725
H        -6.78640690597073    3.85760402978859    8.82048782043839
C        -7.04679277633656    2.16737381502120    7.53749648997026
H        -6.46846261656934    1.66558030298129    6.74095889379519
H        -7.46283057253004    1.39490717375126    8.18878433234018
C        -4.34454195271350    1.57517599983032    8.77885483245035
H        -3.60127412313737    1.27233113995552    9.51595017573337
H        -3.83104377432173    2.07031891274838    7.95698542340697
H        -4.84202482981119    0.67380576321994    8.39423926070224
C        -3.05409551884287    5.67546321485967   13.35543634161285
C        -2.99294473436292    5.05702876754618   14.62203594540327
C        -1.80040758644800    5.09231928555539   15.32661853487844
H        -1.72893039849277    4.60805726605180   16.28763196744387
C        -0.69168962338625    5.75074729536703   14.82489938238088
H         0.22464246360055    5.77955881162869   15.39592214719420
C        -0.76251154116100    6.37114480994395   13.59334713519999
H         0.10329130624099    6.89199590740718   13.21269277245119
C        -1.92988559840281    6.33928681336303   12.84083684925658
C        -1.98388644724815    7.03940169795564   11.50147715333157
H        -2.92033099878031    6.74885351180331   10.99866714520808
C        -0.82631443611018    6.61160668237307   10.59614811974196
H         0.12783510447483    6.97792765090548   10.96902292599680
H        -0.97754323146318    7.01540221100502    9.59703892414959
H        -0.78344037526965    5.52568051500769   10.52984426827476
C        -1.97775622653795    8.55959938499382   11.69047601866045
H        -2.84552369439121    8.88153907378569   12.26118086707574
H        -1.99919033343365    9.05789700931818   10.72347290429104
H        -1.08142111471378    8.87656783651005   12.22034903164177
C        -4.20149347722398    4.32440536064466   15.16848935226997
H        -5.10302327146362    4.82566427251875   14.80425642245978
C        -4.22326183797642    2.89390063641543   14.62023698070822
H        -4.18578738048200    2.91203657504577   13.52634550418943
H        -5.13235775935458    2.38145194641683   14.92865324380850
H        -3.37047610068855    2.33021704014312   14.99465051978838
C        -4.26827874283079    4.31356689417763   16.69602617158116
H        -3.51281531183821    3.65838424631772   17.12311763663690
H        -5.24212598222611    3.94778417019437   17.01554381804960
H        -4.12878043681526    5.31574715694944   17.09616203124019
C        -7.76218337657045    3.86048468943070    5.97544458486687
H        -7.08089750286951    4.59413796050928    6.39964343685497
H        -8.64403679128792    4.38405616658935    5.61020191718705
H        -7.26712636954802    3.37347136706293    5.12106882385271
C        -9.18894825851616    2.01427096463956    6.47491512617950
H        -8.82815961191900    1.39240294139942    5.64045570790839
H       -10.03482015321451    2.60373839565536    6.12512008168088
H        -9.53297705666621    1.35762686159384    7.27357145058172
C        -4.14233462312989    5.65177231463196    8.03166527614994
C        -3.54520843175236    5.34425214757013    6.77381928203372
C        -4.03148681355244    5.92359498372746    5.61477116027672
H        -3.55216112035428    5.70485912587997    4.67146893735621
C        -5.11690991714979    6.77776486940530    5.62511309643402
H        -5.47776515764349    7.22055615046740    4.70891441296195
C        -5.73280902384419    7.05347538632099    6.83344070268766
H        -6.58147245419959    7.72121272971226    6.84479630727800
C        -5.27923227366716    6.50952737237320    8.01902263308274
C        -5.96752798138527    6.88387176738827    9.31332061003388
H        -5.66271712105499    6.15331998100820   10.08430305868134
C        -5.50428823599392    8.27154965691624    9.76716283027565
H        -4.42300647185652    8.28904743837299    9.87189008104525
H        -5.95321687286838    8.52803497514065   10.72464169716893
H        -5.79100766061201    9.02291850986731    9.03366992351896
C        -7.49430756174488    6.85211815541812    9.21075270247281
H        -7.86460639721713    7.67534804584963    8.60454383565520
H        -7.92940975294030    6.94448019272533   10.20336714253363
H        -7.83629428184385    5.92050953338271    8.76445387698709
C        -2.36733324320689    4.39496934305576    6.65133152676919
H        -2.24751186812424    3.83212915029482    7.58524578698401
C        -1.07650996519705    5.18067428901133    6.40084589988015
H        -1.17852138932852    5.80058570649563    5.51273633522392
H        -0.23604538055681    4.50471250216642    6.24822990933566
H        -0.85801844692747    5.83067722488855    7.24579782089676
C        -2.57988972624973    3.35766324503994    5.54220203547577
H        -3.56758641512676    2.90675672931673    5.62138514712780
H        -1.83298165152721    2.56857736181637    5.61960539173605
H        -2.49049368664509    3.80676674794370    4.55657721697205
C        -1.97772886993594    0.85562833822976   11.38187800286821
C        -1.14575568903689   -0.34499361630817    8.62466017892111
H        -2.12806890674100   -0.72692188310852    8.36257964063075
H        -0.40961898932307   -0.95349309436466    8.10834328520986
H        -1.07004828551443    0.66613322163792    8.23891301976201
C        -1.31882592863490   -2.10970691830468   11.17742874544976
H        -1.13827887571688   -2.18904927300005   12.24484213179693
H        -0.73730968176413   -2.88396355000915   10.68796028473934
H        -2.36804694142789   -2.33150528738379   11.00829549674725
C         0.97670467822606   -0.01863607675061   10.89397691368067
H         1.24493690860548    0.98760725472789   10.58941915059229
H         1.62317108594845   -0.70925754359391   10.36125128721822
H         1.19577808071506   -0.11795858485892   11.95298090075783
C        -0.91171415632288    2.72587297418154   12.65255536211920
H        -0.71529849161543    3.79544480867092   12.67981940959159
H         0.02900182550469    2.18175576860886   12.63706226880747
H        -1.47635238962468    2.45520667188572   13.54067025695088
C        -1.74574662982501    2.39391264652440   11.39249561744205
C        -0.92500126212205    2.73847215486417   10.22281117676771
C        -0.30142892610372    3.13928855470532    9.28071927631741
H         0.27080367398993    3.45865113374595    8.46004736807772

