31
CSD_code = IFEJIM | q = 0 | S = 0 | Stoichiometry = C6H16Cl4N2O2Pt | MND = 6
Pt        1.35504358498847    2.20476785200820    6.78794557226556
Cl        2.27078043833372    4.36887774162581    7.16913043092389
Cl        0.27319628883655    0.14409214267761    6.45515803329576
Cl        2.99646068495655    1.69269700785509    5.26016191164700
Cl        2.58827438095377    1.30737705632588    8.50338244617332
N        -0.26057662576086    2.78953096878985    8.06497938384550
H         0.07323192202674    3.66744310062048    8.49040902122799
N         0.20182524733380    3.18805898435976    5.25121305334061
H         0.89824717522713    3.83957855015749    4.88175557736229
O        -0.43858885543305    3.86075026769172   10.59280991711925
H         0.41922032814041    3.57255225831844   10.92901978150512
O        -1.32243412554593    2.36610172748071    2.01732641983434
H        -1.35344262145774    2.75611260579264    1.13812000377802
C        -0.61830187211805    1.90825030296807    9.17828686181507
H         0.30198856955174    1.43291253583770    9.53493803635511
H        -1.29819757261675    1.12925972927219    8.83387880700958
C        -0.83636374465551    3.93116420846206    5.98193816076960
H        -0.38794320256854    4.84578372605261    6.38055855818654
H        -1.66470044098037    4.19768870932436    5.31859026313539
C        -1.36104126226056    3.08552362508414    7.14389774512343
H        -2.16853073514796    3.62171104429539    7.65488591858237
H        -1.74342321261401    2.13118208647327    6.76868533367899
C        -1.23368110672672    2.73496890546920   10.31861411233309
H        -2.21201987951379    3.13077249195571   10.03424436525371
H        -1.36139373134658    2.10212607677020   11.20429930557563
C        -0.56485244460220    3.18116890414099    2.87644074702582
H         0.38678330754170    3.47463400418799    2.41334561587692
H        -1.12600502604673    4.09829422755236    3.12152124081334
C        -0.28904903970688    2.36521969559754    4.14720556249366
H        -1.20567496625512    1.85326036130460    4.44373681568788
H         0.45666853746744    1.60113910154855    3.91552099796489

