58
CSD_code = IFETEV | q = 0 | S = 0 | Stoichiometry = C26H22MoN6O3 | MND = 7
Mo        5.16855100689926   -0.66343693325646    3.46704121363162
O         2.39226053946386    0.69471834929022    3.34141557809601
N         6.83174385428259   -1.72133093579270    3.55736714767435
O         4.43211824006552   -2.11054350667376    4.86605433518943
O         4.43299382705434   -2.34825961184126    2.35987275620775
N         6.15744670892514    1.14331450423438    3.29818348671549
N         5.49640298114329    0.06715460497385    5.37087311229046
N         5.09102370044367   -0.64046391727475    6.44561922821176
N         5.50144069969298   -0.30127148224352    1.46156150836605
C         6.49134090923950    1.86561902334110    4.39579368058500
C         7.14463850139527    3.10078891307834    4.31239372868763
H         7.38137492059609    3.63767577872308    5.21521089478040
C         7.47098708474639    3.60928430584507    3.06732607070739
H         7.97200118037739    4.56074645860014    2.97827798880838
C         7.14636867408159    2.87773854909167    1.93835374145695
H         7.38478172657970    3.23664944470320    0.95158178850140
N         5.10884664089148   -1.20221241888431    0.53727164778728
C         6.49264293968239    1.64877720852785    2.08568325937559
C         6.09581079380354    1.21069542217144    5.59935994484178
C         6.32748763778488    1.77359508715643    6.96630045249688
H         5.95832760245404    1.06530060853319    7.70212926649401
H         5.79883792037461    2.71935169206887    7.07949309922830
H         7.38905558782939    1.95237403216227    7.13196596586286
C         4.53918159336807   -1.77542821043959    6.08116352554637
C         4.03930021917461   -2.68170467953929    7.13460784419932
C         3.43908263844247   -3.88234720968901    6.76233555310566
H         3.35838260229003   -4.11462536123501    5.71030418974092
C         2.95664587321510   -4.74549392577742    7.72743638842712
H         2.48953111705818   -5.67516689596866    7.43622170272945
C         3.06912206274368   -4.41734376264226    9.06911062289936
H         2.69029865939705   -5.09174180058902    9.82347395571532
C         3.66528000974873   -3.22299218751600    9.44419670245795
H         3.74922117875877   -2.96956722263766   10.49110505758808
C         4.14984611649440   -2.35547025269595    8.48378231479409
H         4.61365119753197   -1.42110537340662    8.75610851658315
C         6.10032202630186    0.78028637141833    1.02477119335255
C         6.33744261030905    1.07626916203132   -0.42272038770908
H         5.96195734852064    0.24629393547752   -1.01399684153769
H         7.40065159913741    1.21118281334698   -0.61724995041900
H         5.81759977937812    1.98909614033819   -0.71107553725609
C         4.55815054514309   -2.25097417092104    1.10495554208923
C         4.08778623056963   -3.34892086885530    0.23623951828825
C         4.21688077043138   -3.28138128670227   -1.14860783694367
H         4.66720875537157   -2.40492766547860   -1.58598266652023
C         3.76854285416862   -4.32606103213598   -1.93425376077905
H         3.86753723361309   -4.27340682664783   -3.00882089170154
C         3.19038771400954   -5.44182235584069   -1.34826098748131
H         2.84095279340368   -6.25608914216980   -1.96650116607884
C         3.05852863054458   -5.51228785955315    0.02943774141610
H         2.60533524959530   -6.38103249999391    0.48462522676979
C         3.50461538894112   -4.47084889015284    0.82053246403400
H         3.40912018857433   -4.50214276013613    1.89623663486890
C         3.43051316973663    0.20180493977187    3.38729158216344
C         7.65247422811430   -2.53249890234450    3.60986636134304
C         8.71578744278538   -3.49463215181885    3.66919392084594
H         8.70542837526074   -3.99699658228776    4.63687881327181
H         9.67656095049536   -2.99601962981498    3.53431404067991
H         8.58418916956056   -4.23716903192535    2.88165071752080

