68
CSD_code = IFETUJ | q = 1 | S = 0 | Stoichiometry = C26H38ClN2Ru(1+) | MND = 9
Ru        5.05943459954019    1.22428737678193    2.32685229900811
Cl        5.79551077495752    1.03842877317596    0.10277523012037
N         3.97394653423884    2.73295927081064    1.63671417280505
N         6.45862128167205    2.84108719232504    2.35891165838542
H         6.73484195573358    2.87370155380922    1.36461848224189
C         3.54912513376829    0.65708595722903    4.01075742873623
C         4.84250180753193    0.65642572336022    4.56121116441755
H         5.04059797639634    1.20558164527145    5.47363642890727
C         5.85232289497359   -0.19947573192583    4.04556373958956
H         6.79108938287310   -0.28139094482831    4.58087515054324
C         5.62190430568022   -1.00901035651380    2.92886078378543
C         4.33160974474072   -0.94868914750771    2.32126154308125
H         4.11682815123732   -1.60404540431708    1.48320275513870
C         3.31329926667674   -0.16732746572984    2.87353026180905
H         2.30541646806091   -0.24156869067581    2.47829415989997
C         2.39569616941203    1.37209245700230    4.67294739217714
H         1.55794761756452    1.40067122824045    3.96674932622453
C         1.96385570773530    0.55717769431991    5.89857353472655
H         2.76221226578668    0.51881664924246    6.63587468180457
H         1.70772647172277   -0.46059740623242    5.61384852742299
H         1.09240465519787    1.01527329635198    6.35769577922499
C         2.72791524986801    2.81054306330435    5.06951084479708
H         3.50154563181213    2.84455332391411    5.83215208879717
H         1.84082833306416    3.28930368101748    5.47490094406141
H         3.05614510641543    3.38230978645375    4.20258876527016
C         6.64525340038806   -1.96732955797845    2.40712775743908
H         7.58679305003504   -1.87453777484095    2.94177384895748
H         6.82497562667366   -1.79068086129058    1.34680552599877
H         6.28131264036225   -2.98925223961581    2.51380193372622
C         2.87111467623316    2.55921655732362    0.90957815100634
H         2.60021317894874    1.53650599228733    0.68047297372214
C         2.11903771257007    3.61932605484819    0.43857230217065
H         1.23362460425270    3.43092244565738   -0.14566003983846
C         2.53117424023331    4.91338258378336    0.72005171308518
H         1.96888344716620    5.76239868447392    0.36711057417829
C         3.69873501257888    5.09337244790132    1.44716843344330
H         4.06763005994052    6.08202343420434    1.66883516318321
C         4.39819394788436    3.98249674945610    1.88741992035050
C         5.68902847198169    4.05376709869747    2.65732767193110
H         6.23385171496923    4.96262622495481    2.38343098661711
H         5.48852110801264    4.08453238666985    3.73641998723292
C         7.69783563861847    2.67515062908066    3.12603333221354
H         7.41027191122996    2.63168343666058    4.18281352575100
C         8.41130848334416    1.38724837142974    2.65378679005669
H         8.55638792209655    0.68187100578448    3.46821320523071
H         7.84581475528738    0.88924891564643    1.86222526938837
C         9.76067158265644    1.89843949244608    2.14992346546389
H        10.50088603781824    1.11287708592441    2.01979431399951
C         9.49873480711038    2.71723104769120    0.87700780036697
H        10.41617764281584    2.87887032376571    0.31517218143244
H         8.80214746055872    2.19919868552060    0.21785143060918
C         8.91702122046371    4.04007182323065    1.41618613826973
H         7.97740864361722    4.31249934425226    0.93518346011191
H         9.59563318359857    4.87501560474044    1.24985597573573
C         8.79112923583944    3.77957053982278    2.92593982488645
C        10.09813654495528    2.97290676411181    3.19864257643910
C         8.62408999876415    5.02373485322408    3.78158422780298
H         8.36301939076955    4.76079270550047    4.80395896124498
H         7.86616873645747    5.69882655475459    3.39300963224310
H         9.56025826270074    5.57503112002808    3.80535039292452
C        11.40192855884180    3.71181211759215    2.89594423478073
H        12.23441681480497    3.03179480160004    3.06066001167489
H        11.53011763604759    4.55725721239117    3.56741317710373
H        11.46835298376334    4.07129448236294    1.87667392907975
C        10.23134845511352    2.45089615852639    4.63087436865344
H         9.31667258164184    2.02903117120441    5.03249312880354
H        11.00155877773053    1.68398488434021    4.66653873591436
H        10.53883235446082    3.26089711695510    5.28762586363755

