39
CSD_code = IFEWUN | q = 0 | S = 0 | Stoichiometry = C17H19MnO2 | MND = 8
Mn       -1.46726483735592    5.48419582056778    8.12516772999813
C        -0.22263138035283    5.35920403141867    9.37700587236333
O         0.57958352995451    5.27661036294412   10.20344224371703
C        -0.35343264698070    4.89273889281399    6.88387825757128
O         0.36638991837618    4.51869829005289    6.06242047394313
C        -2.08899238469310    7.37592465040950    8.94506175780349
H        -1.82633988972906    7.87666677501316    9.86817259863019
C        -3.23730067526648    6.56927131192518    8.74775850091570
H        -3.98775602205629    6.36170526377620    9.49974768482359
C        -3.33576814278286    6.28318408716505    7.37420704316547
H        -4.17541783582999    5.81448190516923    6.87703464000738
C        -2.24789760054155    6.91151773073929    6.71831353235435
H        -2.12806165606520    6.99835621387189    5.64585292311054
C        -1.48794807523301    7.59719815863694    7.68891658261116
H        -0.67191288357913    8.27738024466084    7.48896776089041
C        -1.96410054161195    3.70790914418087    8.51477383192024
C        -1.03352184591498    2.52088873113434    8.66682535171068
H         0.00960539463296    2.82842950917963    8.50700157843776
C        -1.15950739681097    1.92866482832848   10.08029719777847
H        -0.46241131178189    1.09516391275946   10.18243482905709
H        -0.88851264175650    2.69208079719321   10.81181039372493
C        -2.59058216096235    1.45954812517672   10.30584191985523
H        -2.68773146725189    1.04440265811791   11.31505885778698
C        -3.51848493052838    2.65743011402198   10.15775835015423
H        -3.26012713713976    3.42314090399806   10.89228297643386
H        -4.55686408736250    2.35990718913248   10.32253847415817
C        -3.38341743576368    3.24532759088523    8.74242018226438
H        -4.10444581978000    4.06031831655910    8.64635375305056
C        -3.75057726341370    2.16401619975132    7.71157809458072
H        -4.78968621329642    1.86322591579527    7.86555099222613
H        -3.65892812164501    2.57859459646975    6.70549942013872
C        -2.82060639154051    0.96906333643449    7.86931341223867
H        -3.08232700888750    0.20210271009990    7.13200681507375
C        -1.39057544533774    1.43792251430580    7.63537599515393
H        -1.28506905654738    1.85396695268068    6.63171893316980
H        -0.69300073329421    0.60454355355512    7.73487881479038
C        -2.95446773155696    0.38941418180771    9.27713789484065
H        -2.29174308699670   -0.47107067962488    9.38792332021614
H        -3.97856698331684    0.04727515889265    9.44257100933317

