66
CSD_code = IFEXEY | q = 0 | S = 0 | Stoichiometry = C24H36BMnN2O2 | MND = 8
Mn        2.19482244114204    4.94154844120003    6.88048943424188
C         2.16918579288514    6.35314917833101    7.94249626531948
O         2.15402806330255    7.24983104062909    8.67770334062893
C         3.94984704355988    5.08588422864534    6.74607506943052
O         5.10752872164324    5.13768287298514    6.70471181510732
C         1.90085063151239    2.89244594880362    6.23224133063352
H         2.37313795007767    2.30181522148793    5.45812364982722
C         0.67131239741685    3.57900741014394    6.10483924403101
H         0.06251086912180    3.62252522057606    5.20974841130087
C         0.28645161714959    4.03224257896659    7.38602436178141
H        -0.67551258093747    4.45815022378022    7.63941596491814
C         1.27009527807416    3.61099607606761    8.31084431532735
H         1.19300439590687    3.67829360510324    9.38836878042206
C         2.26558555174750    2.90398107833585    7.59824054176251
H         3.07904293536674    2.34249171473987    8.03940722117036
B         1.49077280185041    7.05484360550038    3.69336666293562
N         0.81936145318886    6.87216730517358    4.97222744605509
C         1.80184262956478    5.94300829608306    5.27005716941321
N         2.30290455267677    5.87975674859693    3.98178408257064
C         3.45375478651138    5.12637909434432    3.54799004426115
H         3.67128125679821    4.41077938469512    4.35283921967642
C         4.68972773835628    6.01281159305751    3.37014655088817
H         4.87487618769632    6.54846269598349    4.30379726433470
H         4.50672682182438    6.74656609850527    2.58347428854768
C         5.89581410816551    5.15640511339926    2.99838226073002
H         6.77033120389041    5.79361583789149    2.85555348563853
H         6.11319084359014    4.47078475279688    3.81927531509050
C         5.61507731732515    4.36229037529865    1.72587926396021
H         5.45240886367483    5.05277087672497    0.89479176688828
H         6.47725558747187    3.74005645971320    1.47879981008780
C         4.37903165637362    3.48546048135317    1.90328753171351
H         4.56594211398012    2.75876561145626    2.69709547954065
H         4.17804854989441    2.93239114379567    0.98337732450359
C         3.16568806774620    4.33587802213583    2.26998365217556
H         2.93851842646077    5.02226288777542    1.45442232001880
H         2.29140211746823    3.70054429161216    2.42638601541653
C        -0.09796724619499    7.47967111373866    5.90461500588867
H        -0.02723111341464    6.89201747550922    6.83012201346466
C        -1.54199714553110    7.41086836686319    5.40246032697835
H        -1.79926163821858    6.37302686919109    5.18049986538975
H        -1.63938843579514    7.98370108730397    4.48006962899994
C        -2.48574856719249    7.97462822462302    6.46128464926571
H        -3.51441932080313    7.93841307681853    6.09653301056660
H        -2.42837474617874    7.35993809592331    7.36249451996025
C        -2.10543835479381    9.41061414306407    6.80963571097300
H        -2.77757491362733    9.79457021799356    7.57932732901853
H        -2.21844823344898   10.03972517350894    5.92344175348680
C        -0.66197303989792    9.47886464331623    7.30010441519928
H        -0.39401350259904   10.51192857106064    7.52862186247180
H        -0.55751126184410    8.89668727935184    8.21745653414729
C         0.28783368531623    8.92193150528511    6.24445294773595
H         0.23618209433685    9.53942929987978    5.34636308977231
H         1.31594085393061    8.93421875127764    6.61229628136246
C         1.48987618862786    8.18440022137848    2.56756172330195
C         1.93173808125855    7.65012118794769    1.19695706403497
H         1.27410320330936    6.84913594297014    0.86744701365517
H         2.94896213295538    7.27361066935870    1.23265882292357
H         1.89445915903179    8.44855005892318    0.45727160222361
C         2.47823803598385    9.28485334150900    3.00065311577175
H         2.50385432284248   10.07442822463159    2.25155270192080
H         3.48118063654786    8.88191092373411    3.11358421579371
H         2.18291914971306    9.71927725567804    3.95182264078005
C         0.10460894298298    8.82172358048201    2.38085523512415
H         0.14328743451206    9.57053613386625    1.59109389102364
H        -0.22809986670352    9.31064263546851    3.29075155158897
H        -0.62888472760349    8.06893041362643    2.10156477682559

