63
CSD_code = IFEXOI | q = 1 | S = 0 | Stoichiometry = C27H30N3O2Pd(1+) | MND = 4
C         5.54882742905584   10.46991019734853   38.62217250103124
C         5.68633767835335    9.10486452351235   38.95042641371858
H         5.78387545546633    8.39901618529889   38.13612883180638
C         5.67997462942558    8.71171149040797   40.25958284872306
H         5.77835987471710    7.66752116753407   40.51464976168539
C         5.54257877077585    9.65725985974676   41.29112323790626
H         5.54309122265749    9.32268224268384   42.31697178857561
C         5.40476594097358   10.98743033732658   41.00311033838039
H         5.29292236538824   11.71620593513569   41.79157115712857
C         5.40031442643969   11.43175928433793   39.66578603940736
C         5.25720623221445   12.78695615755635   39.30504501840954
H         5.15556083693542   13.53450427641243   40.07735043062760
C         5.24308937891551   13.13441924089538   37.98092217736394
H         5.12431362290630   14.15422017665282   37.65330059595392
C         5.38759311189683   12.11777042293712   37.02006215460691
C         5.39462509965797   12.39154442610316   35.59031805155092
C         5.78644707183531   13.47398896445542   33.68978860515799
H         6.79292310630429   13.76403433328836   33.37640888822736
H         5.05632507991567   14.15022634390128   33.24087326953462
C         5.47826461781650   11.97954361688249   33.40549112351896
H         4.61142367825713   11.86956410312488   32.74558177295911
C         6.65054763927403   11.19895369212301   32.84134104289518
C         7.67215330693339   10.74774365419260   33.68311232792247
H         7.69863945614379   11.01989128795000   34.74109652616679
C         8.72718572494670   10.01574477382876   33.15579372050662
H         9.52056136857304    9.67936540104387   33.80646466622522
C         8.77281065515061    9.72906960519044   31.80033723522817
H         9.59616713630053    9.16078786758324   31.39581713347647
C         7.76646219348834   10.18415245177118   30.96514332098265
H         7.80475533798433    9.97423604978748   29.90754701028377
C         6.70794300156841   10.91080516420383   31.48405172485561
H         5.92359830439311   11.26137622473737   30.82993577532227
C         4.78533761625049    8.63399018283062   33.69935609198605
H         3.88109375220577    8.08639392036006   34.01379504214670
H         4.52143704936608    9.32549149218105   32.89155266816258
C         5.82947755629263    7.66075849235261   33.18150611074167
H         6.78825804558194    8.18698317430795   33.04092194049780
C         5.43527189405682    6.97232495162470   31.87016753149203
H         5.67199184729778    7.59250436359869   31.00939660100817
H         4.36394240960671    6.76610802784469   31.87064692717896
C         6.22271348806578    5.65542617781618   31.87911088344625
C         6.17833608183864    5.27240248457689   33.36896419860440
H         5.31012121775308    4.63843889268490   33.57766191682121
H         7.07920375478190    4.73512799415484   33.67115654775811
C         6.15820735012683    6.65620185272012   35.40130713198570
C         6.43996165178894    5.41223513956976   36.20115265866578
H         6.43985711756796    5.66031993715833   37.25886066826054
H         7.41124585588301    4.99962250176815   35.93594276285878
H         5.68241211631517    4.65583443020179   36.00954525421359
C         5.57159160329097    4.59018030032063   31.00264919592726
H         5.58358421161949    4.90424341318722   29.96259421767171
H         4.53869908566204    4.41911539531136   31.29607255391522
H         6.11216652580441    3.65037249758381   31.08095880808024
C         7.66727686970834    5.88258705656043   31.43113804721891
H         8.17178748721279    6.60025153822848   32.07319662260949
H         7.68942995371801    6.25797431267848   30.41154649855768
H         8.22142010329209    4.94749259347247   31.45772663033011
N         5.56010198071488   10.83604632627334   37.32319240451788
N         5.16986296395965   11.46387889535940   34.72791023230985
N         6.05276691652032    6.52844514447707   34.08817220974957
O         5.70416167482064   13.59523682738727   35.11147151021275
O         6.04340631686582    7.73844226788707   36.01071872028766
Pd        5.49543174737571    9.61490995751599   35.35440192267613

