41
CSD_code = IFEYEY | q = 0 | S = 0 | Stoichiometry = C10H27B3Zr | MND = 17
Zr        3.46896542447910    6.59874884308473    3.42270628359302
B         4.34113763600214    4.88046677595642    1.84019751280044
H         3.58057422090153    4.72258581381117    2.89102907431478
H         5.41147349761544    5.34366542188794    2.19238605967513
H         3.77801640123180    5.63746909119785    1.05613696689578
H         4.47703182863603    3.80855742370148    1.35777908988505
B         4.73926119848504    8.60272205986035    2.76879082068368
H         4.11879046137728    7.80931226937299    1.97981204682647
H         5.87778149484525    8.23876695817213    2.88309616922971
H         4.16221012767304    8.57184843315774    3.88692993662278
H         4.65837597928482    9.69904510496038    2.32224681475633
B         4.40137846954694    5.96213838493780    5.55936480055499
H         5.22244842268140    6.04405906943064    4.61882282627874
H         3.72106087952015    7.01724629458380    5.57042083696524
H         3.65117630570775    5.00062568981005    5.38266840010055
H         4.97914074033160    5.86244381146171    6.58428305774300
C         1.18612949158340    6.11473292163072    2.39694363490926
C         1.38224375293806    7.52038082978214    2.33076514221486
C         1.39510647389955    8.02628929699129    3.66475766566258
C         1.20794043031532    6.93018868119755    4.55243084785169
C         1.10219510047917    5.74748878427226    3.77003430996032
C         0.90409877229769    5.19009878592769    1.24414263619261
H        -0.16255744578238    4.95609731039162    1.21092723715868
H         1.45116501117293    4.25111017662333    1.33999959130114
H         1.17599567303721    5.64869801434321    0.29553522307057
C         1.40682151359977    8.34831739286551    1.07279704058860
H         0.38896933411925    8.59302211690049    0.75966267684092
H         1.88921261446462    7.80929571614927    0.25523407200391
H         1.94419362456788    9.28338027875703    1.22885081974719
C         1.41522801771576    9.48138937612545    4.05167717045433
H         0.39791725308634    9.87931884533487    4.07862569239001
H         1.98786906820595   10.07130117861738    3.33626060655564
H         1.85527810448386    9.62251828590280    5.04006431739397
C         0.95281768055104    7.01374462164018    6.03360901674820
H        -0.12181455789994    6.97626268227935    6.22724601487615
H         1.33429691060050    7.94494165493643    6.45007443078097
H         1.41928114840651    6.18421981213877    6.56625393452079
C         0.78129447572956    4.36896437767458    4.28221156608322
H        -0.29886787809018    4.20345607159960    4.27892136079671
H         1.13547558171035    4.23729548283452    5.30510841343603
H         1.23758676049095    3.60158585970031    3.65369588153731

