97
CSD_code = IFEZEA | q = 0 | S = 0 | Stoichiometry = C44H32BF15N3ORe | MND = 5
Re        1.11247737272083   -4.74423299682960   10.58138452958346
O         2.63125117662998   -4.47663053027737    9.76880032657764
C         1.99810975866809   -4.87890467142623   12.56828790256772
H         2.67421709000688   -5.72990724814515   12.61658129679582
H         1.24280789282806   -5.00498172093862   13.33915298280829
H         2.55636700935806   -3.97374515618501   12.79331002537582
N         0.16208268954114   -3.15874788522320   11.23750849126765
N        -0.82109456463604   -4.86718624396948    9.81952363817103
N         0.57487285247875   -6.61587826304113   10.77326972999381
C         0.28852945743499   -2.42330717738845   12.44128453670743
C         1.27930666171440   -1.44259769003564   12.58374883369578
C         1.37495236849248   -0.74170689268366   13.77365509117655
H         2.14361454837852    0.01042196485284   13.87803213750602
C         0.50906610580725   -0.97837722094591   14.83301486336245
C        -0.47772038039771   -1.93686770112031   14.67205122324601
H        -1.16868095491641   -2.13316755944427   15.47991319006227
C        -0.60475735621025   -2.65785479560235   13.49371549515897
C         2.20494694016460   -1.13283807774247   11.44995781568890
H         1.73083851941644   -0.43141533454550   10.76224385920253
H         2.45071808607916   -2.04141733542412   10.90740395417441
H         3.12471281065120   -0.68434942487584   11.81363027763960
C         0.64564952399714   -0.20336641265540   16.10736384979895
H         0.46717847731882    0.85611439925102   15.92684856110123
H         1.65367996004569   -0.30609321064237   16.50571218538926
H        -0.06244932397701   -0.55159286315558   16.85472738073688
C        -1.70392142563081   -3.67142152641778   13.36460920077681
H        -1.81323742273805   -4.23230085561765   14.28993792034344
H        -1.49036638029407   -4.36581237559956   12.55260714922808
H        -2.65534696983639   -3.17861945498158   13.15929915540202
C        -0.87152899481218   -2.60334315723558   10.36628846668760
H        -0.42645477362347   -1.87447531825707    9.67509316316007
H        -1.64093291008915   -2.07418301137987   10.94241127075239
C        -1.47534572455750   -3.72856849705934    9.58966524821974
C        -2.59050955590976   -3.71064860445170    8.76930771906660
H        -3.10928504775063   -2.78617025588210    8.57460658675708
C        -3.01715753244963   -4.90860296576983    8.21093287074676
H        -3.87884577659642   -4.92290704678041    7.56156656718111
C        -2.35372741642086   -6.09136829973474    8.50692063938654
H        -2.68519596695962   -7.03463009077733    8.10456457172351
C        -1.24195503619659   -6.03312737067299    9.33135526013580
C        -0.40410590205317   -7.15951790155680    9.83948017105881
H        -1.03600685924466   -7.91811202114494   10.32160049349437
H         0.10743398270045   -7.65187177431921    9.00091435248295
C         1.11363368871537   -7.62609619975839   11.60691491404988
C         0.43503764068850   -8.01718763476601   12.76641956772642
C         0.96417760137353   -9.02214482036059   13.56279052327313
H         0.43087941339784   -9.31387119992471   14.45653278133914
C         2.15176702334922   -9.65609103274364   13.23717739577356
C         2.81134584305780   -9.26270783772783   12.08029740347189
H         3.73613392411215   -9.75179175809705   11.80904473292387
C         2.31250222549393   -8.26608600054243   11.25864878937234
C        -0.86012605744775   -7.36970078989056   13.15636176252957
H        -1.70038205813709   -8.02726199941284   12.92984807739852
H        -0.99081364261871   -6.43312917354243   12.61907887407146
H        -0.87466020353219   -7.16842826445819   14.22492057673929
C         2.72610008254604  -10.73049399136101   14.10817488699954
H         3.06149342634646  -11.57352183996141   13.50737361363576
H         1.99332685969307  -11.08126403041321   14.83020935055053
H         3.58843853319158  -10.34701512013917   14.65326879184193
C         3.04042528148248   -7.89248156022658   10.00526520665047
H         4.03484528472546   -8.33013824217442    9.99365398586691
H         3.12667324490187   -6.81076821056558    9.92453230333393
H         2.50499905423722   -8.25362900170855    9.12723279563474
B         3.75082634862766   -4.22846200081779    8.89899581485186
C         5.08086297394453   -4.75605630674658    9.70466976329188
C         5.82559672077022   -5.88241069554406    9.38530374616855
C         6.89066010429996   -6.32510785500423   10.16408442704595
C         7.23607445456013   -5.63679134054753   11.31919033790227
C         6.49609831029699   -4.51869111129804   11.68417976035666
C         5.43812816447317   -4.10945825453465   10.88311241021906
F         5.52062847314597   -6.62078599394473    8.30387464089076
F         7.56934357031459   -7.42407119331571    9.81224787155307
F         8.25299246018013   -6.05475532495273   12.07807038496892
F         6.79643872667825   -3.85310529273215   12.80510041605525
F         4.73711733712854   -3.03767512016875   11.28216115794396
C         3.78394234395168   -2.61589856447748    8.53800812600580
C         4.90314827258136   -1.79480950208840    8.50228625783265
C         4.82484881286092   -0.44287063165420    8.17450810560229
C         3.59483475740712    0.12961690290827    7.87203106308897
C         2.45650248228562   -0.66591716874911    7.89462057331776
C         2.57645762712281   -2.01039538783723    8.21518820111754
F         6.11166107266599   -2.28524352137414    8.79429927529570
F         5.92627275925986    0.31255071446310    8.15539348875282
F         3.50509034152044    1.42733999745221    7.56767934042875
F         1.25085503437518   -0.14045372083563    7.62229448563243
F         1.43953019563961   -2.74745824284943    8.22543177811145
C         3.54525358656263   -4.93926817975629    7.42433901323279
C         4.52286400546362   -4.81944908341012    6.44006761590654
C         4.38469379740146   -5.35852267197037    5.16688300205919
C         3.22060406603589   -6.04257513543564    4.82960652303718
C         2.21375160427466   -6.15773409855852    5.77650022694156
C         2.39189284676829   -5.60256630432012    7.03897795397874
F         5.65204782857837   -4.15642094862412    6.71426837339902
F         5.35564723441411   -5.21693137263649    4.26058954696727
F         3.06936871881246   -6.56822450956331    3.61118855371891
F         1.07030979053353   -6.79746167765057    5.48337046451181
F         1.35567100234685   -5.72911711981499    7.90134798223225

