81
CSD_code = IFIBEH | q = 0 | S = 0 | Stoichiometry = C36H32BN9OSZn | MND = 5
Zn        1.38231139610857    3.05310674181082   13.37576293166802
S         2.91294517330943    4.78223516539246   12.75142360099780
O         0.08085505223323    4.64409245546635   13.56088077941108
N         3.42600631538225    7.95742360487540   12.64914902245748
H         4.25814188274052    7.43538034150734   12.42790302788886
N         0.53884693952612    5.85720895440472   13.40812915387932
N         0.36993572065200    1.39212555085299   15.42452423542423
N         1.01616478426398    2.55491042802192   15.28276655543500
N        -0.10981704249278    2.01739755725505   12.56062531314351
N         2.48542731963724    1.29966717830185   13.17648611238886
N         1.92595989839517    0.28322715525693   13.85047652265735
N        -0.40239210027319    0.84740481334186   13.13658029815078
N         2.03654184990509    9.65224375191668   13.03503792269363
C         1.24143728275787    4.68490710677626   16.42288093399455
C         2.21793152937134    7.39941381709334   12.95271727525571
C         3.24858266236809    9.30327286684947   12.71780610443932
H         4.03980203878703   10.00154626627268   12.52622629069864
C         1.35048341451748    8.48141102783526   13.19329412241831
C         2.56331968945890    4.94982195012097   16.07269534679028
H         3.21292877705021    4.13384714993848   15.78953405912385
C         0.02262772104814    8.20007287022094   13.53677070775537
H        -0.69438598638951    8.97916389803505   13.72493534460623
C        -1.07818661542349    2.32075000355315   11.70133225771197
C         2.83608977044207   -0.68723102750205   14.05439987533549
C         4.64869694933728    1.83673594916237   12.15986379413251
C        -0.32102863420299    6.88156784575428   13.62886429235290
H        -1.31368711270507    6.55296015286991   13.89209169138175
C         3.75597629309090    0.98263497174478   12.93515151880114
C        -1.55989482349314    0.37475780296942   12.63695799159046
C        -0.34487914262435    1.40313997237602   16.56317401233991
C         0.71160261146513    3.33010085113053   16.32221175167448
C         3.04293993050486    6.24668531799732   16.09141709964592
H         4.06799960691723    6.44104196332115   15.81040817507950
C         1.82962257048495    6.06316804903132   13.05160998198444
C         0.41915940521893    5.73788034077654   16.81465485349188
H        -0.60759166840144    5.53653164336230   17.08252272742480
C        -2.02946398085170    1.29428873785220   11.71569027573819
H        -2.92031587606044    1.22252862563388   11.12527765628198
C        -0.15507610060730    2.63322071754199   17.16921876111801
H        -0.56972539966288    2.97057681949278   18.09746963811647
C         2.21190572540429    7.29253772084299   16.45674558503150
H         2.58180192682498    8.30743274396206   16.45459414571195
C        -1.05279556816030    3.58394811185807   10.97556986695712
C         4.02671005621348   -0.27508675287556   13.48610497625862
H         4.95212715839242   -0.81298594681679   13.45162747422251
C         4.19509896151377    2.44696317766670   10.99384715911670
H         3.17893135258776    2.27472791967066   10.67128470647992
C         5.96881302497094    2.02705213495507   12.55693928319669
H         6.32481390228796    1.55696770831822   13.46229232523297
C         0.15277702589322    4.10309280903968   10.50961277195831
H         1.05594648938545    3.51652883964262   10.60313403974794
C        -2.21881709884760    4.32493545906980   10.80607581690278
H        -3.15690806580307    3.92872933940077   11.16634544415858
C        -1.18258148568316    0.26487247343787   17.02325591834608
H        -2.03188963579195    0.12446186968855   16.35587607137852
H        -1.55527908168963    0.46612802156781   18.02398117050415
H        -0.60680582107232   -0.65822141991963   17.03608387488480
C        -2.16640760570973   -0.92224561996216   13.03700184413371
H        -1.46878176616600   -1.73940433168942   12.86292822322688
H        -3.06795230107758   -1.09723887684400   12.45612686033242
H        -2.42380003297730   -0.92012981078582   14.09459739871085
C         0.90175202221042    7.03335788066451   16.82479666443206
H         0.25254634063888    7.84747362322724   17.11217481532817
C         0.19698675735895    5.35526212316286    9.92672644773217
H         1.14154740761673    5.75563202187650    9.58674135067417
C         2.55214873638653   -1.95276623612561   14.78031042628839
H         2.22691111074873   -1.74479299915662   15.79817536415537
H         3.45176250013539   -2.56134863728801   14.81446403197576
H         1.76453127355132   -2.51480404267776   14.28176997247736
C         6.81218260976604    2.82788364516585   11.81001905484720
H         7.83391734483496    2.97711916894809   12.12894649382577
C        -0.96362800011946    6.09861182018510    9.78675533469453
H        -0.92665729146709    7.08290640686473    9.34321251513711
C         5.04157508127555    3.24541283596488   10.24908046881121
H         4.68026101153873    3.71708084679979    9.34684572587458
C         6.35033871375167    3.44054023161561   10.65704547985701
H         7.01163280425541    4.06661672654893   10.07547663817293
C        -2.17169579402554    5.57437761326768   10.21569815479879
H        -3.07956714829344    6.14906450256508   10.10082202907794
B         0.46267903001503    0.33643953972175   14.30348419686712
H         0.08997622702456   -0.71905203012429   14.67580786293186

