58
CSD_code = IFIBOP | q = 0 | S = 0 | Stoichiometry = C19H25CoN4O9 | MND = 6
Co        0.16633034494282    3.53901242699971    5.88744987858750
O         5.89065036815758   -0.23759514212364    4.96497081725677
O         6.43562621238503    2.51219501517945    8.64917918217188
O        -0.59837164354172    1.84567781371551    5.67049698299358
O        -1.69443012557960    0.18305375125613    6.63199165541131
O        -0.31116957798829    5.65784918520646   11.13889886154472
O        -1.02056741442565    4.02049039094978   12.52198610774256
O         0.12836340803816    3.51736581475026    3.44968671264310
H        -0.18501599443501    2.60527136887653    3.43326260201563
H         1.02717101438351    3.51017262019951    3.11261957483656
O         0.87471826097384    5.47498696786697    5.98230637364381
H         0.70385881598146    5.84650234944810    6.85561638192317
H         0.38140439577883    6.01365834493295    5.35373963316146
O        -1.71732594975513    4.42845876306410    5.38223074464776
H        -2.41842572792877    3.89543160724646    5.77146236790622
H        -1.77173036706403    4.30366443453175    4.42664066637489
N         1.86240529339962    2.80234102660148    6.19192005352550
N         6.63235352186410    1.65627180625390    7.73814081900794
N         6.36357173968218    0.32713322852769    5.99654497577911
N        -0.55298668442279    3.27042646598665    7.89372267283668
C         2.34128029587306    1.81281275113267    5.43059229118489
H         1.67402181084153    1.40892946754890    4.68329881865220
C         3.60309991273126    1.28366284567181    5.58005375032428
H         3.94436860858229    0.49316133559585    4.93055305381792
C         4.44605408191407    1.77940138589482    6.58344164705893
C         3.92140158027775    2.78708982409253    7.40411880499579
H         4.51164371016488    3.18798839402430    8.21282452274849
C         2.64883402574848    3.25897733045297    7.17242606362128
H         2.24414561562372    4.03267372958494    7.80829775059015
C         5.78500438973784    1.26535155009140    6.76895553339874
C         7.65050465449403   -0.11001528984087    6.57869682282653
C         7.35814544206495   -1.44051175083589    7.28376055746938
H         6.61597855522658   -1.31399990508038    8.06887577573681
H         8.26471487222985   -1.86113579928377    7.70799444427086
H         6.95899978959313   -2.13744960166740    6.54964691585635
C         8.66161059763099   -0.34590761874453    5.46383751961201
H         8.27011945921837   -1.11276126427478    4.79977865462249
H         9.60568058506882   -0.68463988043219    5.88020524792041
H         8.82926512408588    0.54987307358846    4.87434858583716
C         7.96819430385680    1.05148736622840    7.54445025494211
C         8.83788761116038    2.15336458829058    6.92623531208359
H         8.43528185753057    2.48146861375147    5.97023382495819
H         9.85870556236656    1.80995341370737    6.78969452211596
H         8.84243810113034    3.00549541833681    7.60283967342447
C         8.54789219979994    0.65612620208009    8.89664847078796
H         8.62275765244781    1.54821439859908    9.51385179274919
H         9.53776745533693    0.22777939626515    8.76953430631261
H         7.91264982072790   -0.05392905571411    9.41633570145600
C        -1.13181151781640    1.25869728529155    6.68273576137864
C        -1.04562104670195    2.03193269163800    7.98761474687119
C        -1.47261394856724    1.49338905423921    9.19281423629061
H        -1.86999365587676    0.48996510857544    9.20210052112180
C        -1.36277211231710    2.26795278910815   10.33796079326487
H        -1.66186795120777    1.90168369886151   11.30843370149063
C        -0.85659357320684    3.55252609973391   10.22171109681485
C        -0.46660465306657    4.01754779603086    8.97994674988399
H        -0.09046647211554    5.02989225007892    8.90041627590459
C        -0.70833263490533    4.54978406786269   11.46886843338245

