76
CSD_code = IFIBIJ | q = 0 | S = 0 | Stoichiometry = C39H32BrCuOP2 | MND = 3
Cu       -6.20572570762953    2.99186445802410    8.47784482859173
Br       -7.16279969605781    5.05317458448076    8.46603553773702
P        -5.50885784263955    1.89710996680878   10.33604080348150
P        -5.63609298447409    1.85684470322055    6.60098567763780
C        -5.76828023215344    0.04270336517863    6.70000098312548
C        -5.73031763144603    0.08931929232755   10.33300794279062
O        -3.60121222887548    1.57571543957844    8.38761470766544
C        -0.76145342586590    1.83028450775890    8.28217287400049
C        -3.73013679227366    2.09517134989683   10.65467263927817
C        -3.14076956034668    2.49772412438085   11.84368888798744
H        -3.74816570287012    2.65371812632837   12.72258422428580
C        -6.48854031511282    2.20034664506207    5.02777832608778
C        -3.40432240091956    2.52872879890381    4.91679767531387
H        -4.07772663629596    2.68265858085956    4.08687161640036
C        -6.22636975423446    2.33693738544858   11.95260750686439
C        -3.89733013684208    2.10657182103035    6.14186680953205
C        -1.18031515225502    2.56815907939613    5.84634199289128
H        -0.12890847113982    2.75189071934488    5.69682164788389
C        -0.99212851291257    2.52495545482211   10.75297191871729
H         0.06911067196095    2.69839713028252   10.82489515354122
C        -1.55241949224744    2.12732064715890    9.54538417173411
C        -1.64443597353165    2.14905352041637    7.08740550091134
C        -2.92711851167539    1.92470916026212    9.52430577902314
C        -1.77407933042824    2.70795188828425   11.88216567609983
H        -1.30820708730844    3.02097830841337   12.80422293326517
C        -6.56942577103753    1.27055665260025    3.99512469053603
H        -6.12456086951092    0.29173032579052    4.11358693674376
C        -3.01176589110905    1.93761580838475    7.20870981236063
C        -7.04132218964739   -0.45548038383051    6.96812798883481
H        -7.86505057044057    0.23837096203499    7.08588965610445
C        -6.18541447118312   -2.69038930191825    6.92717659006814
H        -6.34549572655819   -3.75506191719416    7.01011141384602
C        -7.32730987570400    3.12923958869998   14.36933351916676
H        -7.75755128008365    3.43357380102153   15.31216373102573
C        -4.97631358686158   -2.18497322328290   10.21611702544955
H        -4.16720565964738   -2.89814151348542   10.15039702208514
C        -7.06716026221549    3.45717223170316    4.87797042483090
H        -7.01689335530104    4.17498962426237    5.68558730433537
C        -6.20893317791974    1.47022995604741   13.04243408366773
H        -5.76634661682162    0.48804421259076   12.94391674056091
C        -6.79999738618744    3.59817604606898   12.07885478175203
H        -6.82430375887232    4.26864368629313   11.23054023059246
C        -4.91552952275391   -2.19915373841836    6.67754948256217
H        -4.08506806678060   -2.88145543512889    6.56501282910301
C        -7.34746404204615    3.99243925961936   13.28702667480574
H        -7.79351422313641    4.97117691349576   13.37805351884543
C        -2.04659301229317    2.75861996431525    4.78151673163854
H        -1.65361016854970    3.08921992761884    3.83204473997834
C        -6.28553722274948   -2.62878400732172   10.28426908029481
H        -6.49798431600587   -3.68746406804014   10.27370652015203
C        -4.69435281048952   -0.83075183230366   10.24086836043017
H        -3.66835023103873   -0.49333401174315   10.20396180502158
C        -7.78961661566803    2.85985297287880    2.67239311213446
H        -8.29735525020479    3.11277655518077    1.75320294302421
C        -4.70258300593833   -0.83713410338596    6.56158520341545
H        -3.71081766524878   -0.46196111954068    6.35078474810171
C        -7.04845994824226   -0.36145892729210   10.37804611107799
H        -7.85235826159535    0.36232805426509   10.43604649734334
C        -0.48201683021449    0.31282786530751    8.25696837072963
H         0.11913544184883    0.02864039551877    9.11829192860935
H         0.05494681553467    0.04641042126327    7.34882558010099
H        -1.41243266479945   -0.25229162288216    8.28476664028697
C        -7.25063912315388   -1.81596043390320    7.07168226512342
H        -8.24191139861027   -2.19678001525236    7.26821452380106
C         0.56572174409593    2.58678476605708    8.23915374211299
H         0.39677919217261    3.66104858040565    8.25854025282466
H         1.11866605133067    2.33140548630249    7.33953252873994
H         1.18799266708406    2.31056848652268    9.08577988623300
C        -7.71372783749375    3.78528324701507    3.69972894740756
H        -8.16240373964112    4.76083056802970    3.58914158229433
C        -6.75868573716804    1.87031710231397   14.24548648108093
H        -6.74440858235760    1.19761983571066   15.09108704699006
C        -7.32355031845744   -1.71385633090332   10.36463757559337
H        -8.34638492420439   -2.05718034704269   10.41559950607066
C        -7.21896613814137    1.60487800806344    2.82180347450011
H        -7.28076689840198    0.88365196983376    2.01946354276642

