63
CSD_code = IFIBEG | q = 0 | S = 0 | Stoichiometry = C24H33ClN3ORe | MND = 5
Re        1.97318762399570   12.67137575556094    5.07618428545813
Cl       -0.22806822061957   13.29768218225016    4.88486096572519
C         2.63870852036431   14.45938607147365    5.04716074190995
O         3.03556157901574   15.54218344159058    5.04084364066093
N         2.75523385817440   12.10710660385848    3.40049766480225
N         1.30140613715105   10.58662840518519    5.16233588731457
N         2.75193040125456   12.18697587341674    6.77112776593592
C         3.62813664565039   12.77149518701239    2.50370467229999
C         3.09342323807188   13.69220905837788    1.58848628056088
C         3.94216166007669   14.33383567894292    0.70449333176847
H         3.53020771444473   15.04417613070694    0.00180356465621
C         5.30992368392010   14.09100853528959    0.69677552099413
C         5.82049842918893   13.17867987525513    1.60358109757660
H         6.88232947686331   12.97596585503642    1.61715730576847
C         5.00211712435319   12.51255405077167    2.50518719280265
C         1.62269971418192   13.97150293966520    1.56974502802017
H         1.29141424101480   14.29044067851859    2.55894886250658
H         1.06175205378698   13.07590927560511    1.30269122086780
H         1.38926157087350   14.75229706457522    0.85143216118769
C         6.19759402759066   14.80690566595029   -0.27537894809582
H         5.92519269015826   14.54994210379829   -1.29856925251235
H         7.24043679480349   14.54457170799421   -0.11781886417857
H         6.08783979578143   15.88423090965526   -0.16304127914584
C         5.61082012681295   11.53271293321903    3.46504956034099
H         5.75482911782860   10.56363940553565    2.98381168014103
H         4.97091863353149   11.41048223429425    4.33600856688870
H         6.58396750816848   11.88680719933283    3.79669557674489
C         2.46562913470650   10.74092595047200    2.98555975014291
H         3.34828704003861   10.09641186523875    3.12111402081682
H         2.23315935604573   10.72580475824287    1.91185057955349
C         1.26605629605256   10.18209875662386    3.75833735004026
H         0.35175645518594   10.60530706734194    3.32998366144910
H         1.22057752052352    9.08655723892928    3.65018178199184
C         0.01662179916859   10.29210774208785    5.78434725236975
H        -0.77466533131885   10.84404053250106    5.27821480659723
H         0.02551308519847   10.60496019655215    6.82742763252511
H        -0.21187202800022    9.21822880230681    5.74099646967816
C         2.37164787876115    9.93219124541026    5.91902559888260
H         3.26544810290508    9.87102294432555    5.29137250625989
H         2.09132912463531    8.90966743915497    6.21440529738964
C         2.70464381374618   10.78161430253200    7.14989756859793
H         1.96066367522533   10.62243623549326    7.94409766418654
H         3.67518408911067   10.46742358415710    7.56072313232948
C         3.27592992240065   13.00810752076913    7.80247271322507
C         2.41814343197199   13.48733215343767    8.80259498585745
C         2.94216660808663   14.25285136103319    9.83158654181466
H         2.27868010819211   14.61923244068341   10.60247052274026
C         4.29134197383113   14.56868621564637    9.89182822131869
C         5.11823754960622   14.11918158232001    8.87419209495149
H         6.16758020220354   14.37783240280626    8.89020927888641
C         4.63283539658871   13.34872751787407    7.82997466974675
C         0.94540317687310   13.20914601123457    8.75180677382016
H         0.40275551659185   13.93412085228880    9.35269564739657
H         0.71622809643779   12.21476658271911    9.13918657216549
H         0.58737775598657   13.27599695590827    7.72281417565949
C         4.82551057451827   15.41196918446735   11.00961453808149
H         4.57640764727602   16.45879303408764   10.83565188951771
H         5.90700693978173   15.32678040961644   11.07903299923548
H         4.38568410003407   15.11773169667084   11.96047587145610
C         5.53609367135961   12.91735102071329    6.71730929841322
H         5.09952573138824   13.22864618475401    5.76773891512800
H         5.65290424936948   11.83404632947346    6.70589755864628
H         6.51872318907474   13.36769705925408    6.82543742812882

