47
CSD_code = IFIGUB | q = 0 | S = 0 | Stoichiometry = C21H22ClFNRh | MND = 8
C        -0.78435779244591    1.86212349881478   10.63834702639457
C        -1.20943539350497    1.05058261496020   11.76461797642609
C        -0.92666999227059    1.77339965841653   12.96567564787272
C        -0.15338470432605    2.91401479983572   12.60082339690348
C        -0.13578727761436    2.99303596122781   11.14642402377239
C        -1.15677978622792    1.60049138336358    9.21041776609238
H        -2.13461900476963    2.04185971918100    9.00565372359295
H        -1.22548588275508    0.53335907597750    9.00641573071174
H        -0.43843719946084    2.04312976303281    8.52282375558539
C        -2.12046381270021   -0.13461611069211   11.66924997633059
H        -2.06383112397286   -0.74070530309356   12.57051062974941
H        -1.87000010383794   -0.76209314650661   10.81577110721689
H        -3.15161763310701    0.20444654961291   11.54901703560093
C        -1.47226833750644    1.43290905598755   14.31822273526789
H        -2.54775417423696    1.61937920742755   14.32309128741850
H        -1.01952701772834    2.04460855246278   15.09316581790916
H        -1.30866316651923    0.38596840147360   14.56736521980069
C         0.25603091766138    4.05463228287743   13.48296455784618
H         0.24803237392718    3.76959521995984   14.53206618330970
H        -0.43382317882300    4.89022618167482   13.34877227332052
H         1.25762562191928    4.39433478705128   13.22600882907900
C         0.40375031462667    4.16444463113033   10.39095173156757
H         0.31463183759982    4.01757561615940    9.31761606321857
H         1.45422087481628    4.32270055744855   10.63341096213132
H        -0.14730254188005    5.06430052446134   10.66794076211083
C         1.75222870754534    0.16350725740715   13.52837120072964
C         1.79449231115252    0.60697303960083   14.84387361091035
H         1.42372241073529    1.58049346167959   15.12893684423908
C         2.34749767230192   -0.20675757044055   15.81392382214896
C         2.88482708638943   -1.45271349030118   15.52847534612958
H         3.30540939499953   -2.04995850345946   16.32164048146786
C         2.88544905676422   -1.88260360840901   14.21902170822220
H         3.32328079359987   -2.83876411853084   13.97577985000625
C         2.32980745844465   -1.08436169301301   13.21841796567839
C         2.33777709371187   -1.39258740690779   11.80281153605042
C         2.95039912456549   -2.49604145072695   11.20736649641622
H         3.44106526083734   -3.23097412166170   11.82433281120072
C         2.93613877414079   -2.62913990315009    9.83500892442102
H         3.40504507351601   -3.47706155139716    9.35942992728767
C         2.32244000733588   -1.64078724972633    9.07390114826917
H         2.30698146192137   -1.69455232422073    7.99729774135461
C         1.73450991062331   -0.57381697359521    9.72256851556582
H         1.26841976608182    0.22426733507057    9.15780618205109
N         1.71867401331401   -0.45774742444183   11.04873755200412
F         2.36110881263481    0.22548973940067   17.09451741814549
Cl        3.06189600517585    2.10311894082090   11.73585071037489
Rh        0.97394598734671    1.16141413376484   11.98780598811506

