59
CSD_code = IFIHEM | q = 1 | S = 0 | Stoichiometry = C25H30FNORh(1+) | MND = 8
C        -1.36403928102256   -0.08697474012359    6.97763254396288
C        -0.20550233344973    0.78743397830671    6.75431482914181
C         0.91958419565695    0.16733979080323    7.28843099426911
C         0.47577174102979   -1.07473401448345    7.92527727451706
C        -0.90779067600126   -1.28896592011468    7.56472897605755
C        -2.70694984016209    0.16663933164608    6.37373921498065
H        -2.65825896985697   -0.01127439763539    5.29837425945672
H        -3.01728562372077    1.19846349265195    6.52708742041339
H        -3.46378887656338   -0.49115839431436    6.79314872306141
C        -0.26511586910666    2.04075415375947    5.94635509851066
H         0.63455853765227    2.63921981056182    6.06697789043110
H        -1.12923088859705    2.64358594026354    6.21991873392932
H        -0.36254602563753    1.78331879855923    4.89070541377392
C         2.34935004938179    0.57251775498440    7.13917743014104
H         2.78122775357504    0.02807925267209    6.29789351746063
H         2.93190597449605    0.32485134041431    8.02412206852608
H         2.44939639380512    1.63573652233429    6.93312289995879
C         1.38979585552933   -2.12837717999366    8.45668031488126
H         0.86187974686745   -2.80190029383302    9.12730848936719
H         2.23416955068205   -1.69474660899643    8.98789228876883
H         1.78028996502827   -2.71453842415381    7.62334222729946
C        -1.63112666878407   -2.58881328057283    7.68925473239783
H        -1.22318992251611   -3.28077797798229    6.95119651938849
H        -2.69330243918608   -2.47727211681941    7.49285790108210
H        -1.49918291472832   -3.03399507828044    8.67284758136522
C        -1.59623962751312   -0.46295586529465   10.52286095388949
C        -2.81461764065906   -1.11556346217627   10.44262651469448
H        -3.35365779614780   -1.21889092977703    9.51211956510766
C        -3.37355359605435   -1.65430471782815   11.59200398953112
C        -2.75650470916890   -1.56261875957871   12.82927858144284
H        -3.22300293141598   -2.00469451996036   13.69441357649316
C        -1.55594385711306   -0.88935216921907   12.91947408056412
H        -1.07512765829334   -0.79479974153976   13.88018602739107
C        -0.97510065438777   -0.33146270113241   11.77949289737660
C         0.23933590946828    0.46527598744248   11.76740308899783
C         1.02281599733493    0.78160288879371   12.87787881208976
H         0.76404353580657    0.38663516088247   13.84614785574510
C         2.12579689964407    1.59747329985379   12.72581571550653
H         2.74651559903277    1.84428218983283   13.57270882818121
C         2.41895139075858    2.10193026723368   11.46437557207049
H         3.26325212582484    2.75214113720927   11.30519088151149
C         1.60544745887782    1.74852916776162   10.40525242869181
H         1.80412189546409    2.12787159251547    9.41026849694594
C        -3.20846543683484    2.31827089882855    9.85735576893917
H        -3.13124553907563    1.94920564796437   10.88738440564820
H        -3.84915209472184    1.64460363113876    9.28679457328815
C        -3.68334526593121    3.78262948528486    9.83068138059830
H        -4.54700756673505    3.91162694769230    9.18337302136178
H        -3.95735101882797    4.11065852352278   10.83083512823246
C        -2.46706009435391    4.55874825750379    9.30518859956261
H        -2.29958520976818    5.48906112571150    9.84003115869927
H        -2.58178009072924    4.78215184895250    8.24502250769113
C        -1.32644494459136    3.56415008259671    9.50887330560743
H        -0.49384129345784    3.70176131602576    8.81712976433959
H        -0.95804795742769    3.60016807172933   10.54399667168965
N         0.55325867273091    0.94417566450315   10.54483548056104
O        -1.92033471963961    2.29984289272951    9.24102631402510
F        -4.55288631002023   -2.28491448494453   11.49239348556798
Rh       -0.63786290649006    0.39044952610658    8.97779322479777

