68
CSD_code = IFIHAI | q = 0 | S = 0 | Stoichiometry = C28H35FNO2Rh | MND = 8
C         4.72275565247624    6.47813581571177    9.90584908033617
C         4.25150078609247    6.90945929377754   11.21188824450429
C         2.86718851434361    6.73479076963966   11.26600549221102
C         2.43724457812269    6.20419513510747    9.98664552576331
C         3.60648516806928    5.92432456015687    9.20707511732134
C         6.17429294474287    6.28810265312404    9.57268229755108
H         6.61607173445810    5.55932348817891   10.25489139830538
H         6.72213804111424    7.22401708982807    9.67117342948909
H         6.30062148381951    5.92187005211842    8.55704291506421
C         5.11720889216079    7.34947394931758   12.34697617570383
H         4.67405863625805    8.20515087066825   12.85233247965681
H         6.10917612684830    7.62504527269319   11.99855044450761
H         5.21371576218436    6.53566451905585   13.06880140328834
C         2.02148150389837    6.95240606663068   12.48099822206344
H         2.25059964370488    6.19034556843315   13.22844513849343
H         0.96156068674209    6.89012779454182   12.24539970675593
H         2.23597489883994    7.92602606407676   12.92006051321650
C         1.06294623121133    5.67913471186035    9.69545915974564
H         0.89389774886372    5.60154664625349    8.62373217915030
H         0.29383262711682    6.32309854324620   10.11843618696254
H         0.95136269523670    4.68434704580111   10.13160323126304
C         3.63328767268247    5.08731710806254    7.96518475325762
H         4.55200516181222    5.23190645342796    7.40442859697976
H         2.79588039570944    5.31795590815002    7.31004265161497
H         3.56671374177165    4.03406729397333    8.24513215989859
C         3.46907246345827    8.53235002901859    7.47885037402656
C         4.48787160335695    8.13597128538073    6.62340342187517
H         5.32450196735722    7.54828180167093    6.96998726047243
C         4.44592685905828    8.51845285601677    5.29597815727081
C         3.42957140429850    9.30413509147107    4.77628986301427
H         3.43892354960504    9.57441839661968    3.73238973432003
C         2.43683227489457    9.73885099802141    5.62901789914872
H         1.65227787421668   10.37312169268490    5.24494506707248
C         2.45184605577827    9.36546476736846    6.97311395587506
C         1.49268393471546    9.80586679021431    7.96970337316943
C         0.43921009585312   10.69406049847415    7.74977115447780
H         0.28138475852452   11.10491118538230    6.76584339290452
C        -0.38737054883160   11.04689851358379    8.79683735977956
H        -1.20539983942606   11.73464001719891    8.64312561969213
C        -0.14174213465589   10.50648181451778   10.05239292196625
H        -0.75860242983868   10.75986758595532   10.89941528129891
C         0.92177200369132    9.63725632861094   10.20699712386834
H         1.16437694026158    9.22832289364480   11.17760957439957
C         4.29840070675572   10.37959421002975   10.75635965655314
C         5.17330651258774   11.59659602206422   11.05383175063492
H         6.06825120019067   11.21824814146030   11.55288446888836
H         5.47578636223520   12.04779369776819   10.10809798647123
C         4.45308794655308   12.59825225334998   11.95002253802875
H         4.07070601062159   12.06812729672568   12.82458153300469
H         3.59163314526469   12.99456552374198   11.40617062828114
C         5.34331661911551   13.75931226754215   12.39271754444434
H         4.71686414930024   14.50901404516988   12.88324767115806
H         5.78713663045727   14.22207182372536   11.50949880147961
C         6.44266753201721   13.33234363630849   13.36437898181044
H         5.99064839042056   12.73773317796506   14.16234600029125
H         7.16811307505356   12.70012050312407   12.84926494034657
C         7.18152342215767   14.51367252856220   13.99422413052150
H         7.85059413602462   14.13237473015825   14.76992623300595
H         6.45918576726799   15.17507227835778   14.47869512845182
C         8.00170996047107   15.31177193050799   12.98726920518249
H         8.69943504318423   14.66075258486118   12.46463251627251
H         8.57128490428241   16.08822316827188   13.49350412181858
H         7.35883128879686   15.78826994193850   12.25199244325717
N         1.71500117014858    9.29100708303051    9.19756559308806
O         4.50368401435673    9.84377840286424    9.61897494206707
O         3.48421837302433    9.96125098802971   11.57641228856622
F         5.43298535105941    8.10574260121011    4.46806984163673
Rh        3.34169014306087    8.09592596388025    9.41912301013752

