56
CSD_code = IFIJAK | q = 1 | S = 0 | Stoichiometry = C28H22Br2N3Pd(1+) | MND = 6
Pd        2.05403448569166    1.78125565556945   14.24321414777353
Br        3.12463092833742   -0.27096425066244   14.93506626205543
Br        4.03523937478895    2.41736462088592   13.01381997489976
N         1.30859075509792    0.65908388999267   12.29437056279813
N         0.23168751163108    1.06719536813525   15.01680837012989
N         1.04456715722763    3.41051542603226   13.38547790584157
C         2.06147954719072   -0.13578695475357   11.54272992747144
H         3.08641347874005   -0.28001987947442   11.86252340938111
C         1.56807336195875   -0.75383332913830   10.40532846697346
H         2.20687220552474   -1.39288683730739    9.81885835564033
C         0.24855324404003   -0.52977349620881   10.04798903019293
H        -0.17175284437424   -0.99244071367069    9.16865620072701
C        -0.53300477973906    0.30142524697182   10.83790851601766
H        -1.56371810486135    0.49465614304770   10.58565496381003
C         0.04050182111317    0.87882977614223   11.95982295148458
C        -0.75759027185292    1.80348316601956   12.87787089052213
H        -1.77246287374883    1.87885208219298   12.47935240607327
C        -0.84936455367312    1.15549958055121   14.24289708899299
C        -2.05079903447880    0.56742487137105   14.62421178296430
H        -2.91915992797606    0.65823323321505   13.99119392550659
C        -2.11591951694767   -0.15171450359995   15.80524723365223
H        -3.03579179256992   -0.63047716833597   16.10205685845916
C        -0.97584226363265   -0.25210971774918   16.58549199317277
H        -0.97007750206206   -0.81144859226588   17.50623015226190
C         0.17340639382907    0.39068799761710   16.16249622108451
H         1.08082227135685    0.34670808333646   16.75200382313598
C        -0.14032967735931    3.18397877723534   12.82052760718698
C        -0.78666824038921    4.17706363685945   12.09178317511553
H        -1.74865245682222    3.97817859598880   11.64669073539450
C        -0.17893441609958    5.40988721692688   11.92770710808008
H        -0.66073041977592    6.18316890255821   11.35025155970038
C         1.05992479630261    5.62297443754523   12.51054858211206
H         1.57885173000161    6.56119787254346   12.40472612780769
C         1.63002824671595    4.59905543174976   13.24512907754771
H         2.59172446410299    4.73200620115815   13.72560612670820
C         2.63417303426520    2.79993590553080   15.99939363792953
C         3.95877217270185    2.65745744194087   16.37156511100476
H         4.66104013255294    2.07196446734819   15.79405768257211
C         4.42792117960651    3.27299026727400   17.52502131466671
H         5.46337052376562    3.15015961083544   17.79929014930536
C         3.56941342335426    4.02489596459290   18.30346353154648
H         3.92373626649701    4.50317797063119   19.20305560998712
C         2.24936427040388    4.16020933086733   17.92609786700496
H         1.56245185871278    4.74314052109111   18.52187901374828
C         1.75412398063940    3.55388590400544   16.76750979536709
C         0.31027714300462    3.77953747262335   16.48659106900916
C        -0.65346206310815    3.00556499303401   17.12608434767627
H        -0.34256920692669    2.25351756352034   17.83641505017968
C        -1.99845398293887    3.21494146804045   16.87900200314814
H        -2.73601536796555    2.60329689648205   17.37661536878230
C        -2.39884683895554    4.22159859833193   16.01589566855860
H        -3.44785078779158    4.38348115981294   15.82180464570412
C        -1.44961732237199    5.05241831617024   15.44542696553727
H        -1.75679421066882    5.87923907473290   14.82241737384636
C        -0.10375875139384    4.84319540284650   15.69265735394463
H         0.63212144933138    5.52682089980731   15.29530491980487

