58
CSD_code = IFILIU | q = 0 | S = 0 | Stoichiometry = C20H29Cl2FeN5O | MND = 6
Fe        4.91359824248935    3.69749242543417    1.26698018238747
Cl        3.25470672006330    4.43918387513862    2.47692458864556
Cl        6.47076100565180    3.31368526678639   -0.17058730608217
O         4.68291598142986    5.77995402948412    0.41850690532179
N         2.92583678069482    2.69192915265492   -0.90288663224640
N         3.67945162172366    2.61386683105516    0.18972567823970
N         6.91136630625341    5.33464950952692    2.85680084038386
N         6.19910793116208    4.25456572420923    2.56552415671255
N         5.05427959417146    2.13245146922805    2.18829127568594
C         2.30379085646735    1.52010421198429   -1.18162720488893
C         2.68094130845386    0.63887119068865   -0.19368258485307
C         3.54905713719328    1.35958049318962    0.64687724498135
C         4.32371021488918    1.05927978264831    1.82228466046420
C         4.37891272631815   -0.13155778050061    2.53526322162657
C         5.20689387195390   -0.20844779602539    3.64628648005128
C         5.95787791354146    0.89654536004270    4.02213288184911
C         5.86102825766363    2.06031038496365    3.27071086425493
C         6.53574619121656    3.31636258513371    3.46387439108341
C         7.49273496389548    3.84383911444057    4.34934031066701
C         7.71216902639271    5.13930536732556    3.93261638576117
C         1.40233897475377    1.36623542433663   -2.37180160607601
C         0.21517663967393    2.32927322020023   -2.23211980581751
C         2.19110023589724    1.68874958822001   -3.64845318197960
C         0.88398199887423   -0.07123036618013   -2.44609254760800
C         8.65574558953574    6.18852461931904    4.44688481764538
C         8.11247701536376    7.59058893693488    4.14823181350037
C        10.01123384795640    6.00194053890027    3.74941514677061
C         8.82719332536255    6.02437510780443    5.96018149955994
C         4.53518154216188    6.09172461137858   -0.95295031862643
H         2.90506381401037    3.54088915773642   -1.44356046174265
H         6.82172513049533    6.15802266373352    2.28416365539096
H         2.38860982953437   -0.38307503200628   -0.07863264345852
H         3.78342851257236   -0.97353216112093    2.22142001086285
H         5.26583204573110   -1.12287233082099    4.21602488888477
H         6.60826300272573    0.86590872301189    4.88130790867297
H         7.94768081146076    3.33369158275691    5.17184075976062
H         0.54601497069681    3.36517562557301   -2.21394722310627
H        -0.32884268289714    2.12830336813192   -1.31217298685835
H        -0.46606055884611    2.20404223562658   -3.07044068944642
H         2.52158141329884    2.72479293761045   -3.66100279212611
H         1.56664665164577    1.52167326224799   -4.52295389871935
H         3.06787243715984    1.04989508601017   -3.72310558373984
H         1.71067214522946   -0.77042191463384   -2.54118420192691
H         0.23414571421954   -0.18754851899270   -3.31013728827360
H         0.31559589670915   -0.31966183070273   -1.55361887805730
H         8.11773093979887    7.79842669942733    3.08048984609318
H         8.73783644792375    8.33676880877213    4.63291900496512
H         7.09784043231370    7.69848114805957    4.52544868404181
H         9.90396343399658    6.09098848846172    2.67076052366099
H        10.41902811301928    5.01875050588744    3.97053326983483
H        10.71590918035326    6.75590826018173    4.09236566111341
H         9.26806435072759    5.06027789489300    6.19647160312715
H         7.86546692880499    6.09840925305350    6.46195438516170
H         9.48159224496772    6.80165244012171    6.34761691108780
H         5.30327063212071    5.52771236269680   -1.48167452322389
H         4.68779832806612    7.16388763703860   -1.11421194463634
H         3.54646635253469    5.81330155610715   -1.32930246422178
H         3.89438766042024    6.05209921281764    0.92377630949761

