33
CSD_code = IFIQUK | q = 0 | S = 0 | Stoichiometry = C10H15AuN5PS | MND = 2
Au       10.44170372383866    2.26182696156049   15.54404476475366
P        10.60669396739553    3.39743278819063   17.50415521468100
S        10.09924473738824    1.18080087490322   13.46708740076656
N        11.06703670848803    5.75578443720834   18.86016554857244
N         9.43116928902751    4.25829798755817   19.84701301736796
N        11.79654452250405    3.72454260284425   19.97251623622524
N        11.87667490508654   -0.66296585202779   12.85704074045130
N        12.12889253552488    0.48371768977238   14.91664437023524
C        11.85168067134035    2.88833355048993   18.79404638748028
H        11.65872913743122    1.84665351565810   19.07738601198720
H        12.85490242803626    2.94422519344665   18.35479302548582
C         9.14156765899794    3.49940811825512   18.65091737121789
H         8.30738487088536    3.96834200647843   18.11531344806398
H         8.84092827606095    2.48217018676342   18.92968534763940
C        11.01647093497727    5.21560175258786   17.52003210051378
H        11.98785601590136    5.36200926058033   17.03232834711922
H        10.25701082624622    5.75304538555444   16.93947346347297
C        10.49940369798516    3.65345154130553   20.62644426682697
H        10.25267306821176    2.60665098075489   20.82181097821941
H        10.56960354749536    4.18797715270055   21.57845252128782
C         9.78800658444178    5.63444780854293   19.54142090849609
H         9.00649287349501    6.07825128837362   18.91936207989207
H         9.85160233935015    6.18623269549706   20.48396916716716
C        12.09473524148797    5.11422567593682   19.66440014190615
H        12.17746602418914    5.66089422046175   20.60848108473620
H        13.04992965238859    5.16791934014276   19.13567078223835
C        11.48849077241217    0.24119802423238   13.75415613542282
C        12.95699038549677   -1.35839073258074   13.13061368679620
H        13.24681345964835   -2.08553140557299   12.38165263096302
C        13.69207248023445   -1.18492712699472   14.30050616921617
H        14.57693567307401   -1.76043163365266   14.51380008694541
C        13.21181365762538   -0.22338791298221   15.17506341679124
H        13.70427933332325   -0.00570637601286   16.11665314707223

