45
CSD_code = IFIQAR | q = 0 | S = 0 | Stoichiometry = C19H20AuBr2ClN2 | MND = 2
Au       -2.78247306745030    4.94513597511085   10.62255745646797
Br       -8.27151354463615    4.09648831683155   14.69030906176673
Cl       -2.78141840951905    7.18053987581737   10.62308501182734
N        -3.65906691899871    2.18607719453617   11.24957401650713
C        -2.78184574850622    2.95804348847963   10.62309276398286
C        -3.40904925602186    0.75690090636691   11.06262931202191
H        -4.26590798935581    0.28146659780422   10.57814525304815
H        -3.25059052908849    0.27148081431394   12.02994382866725
C        -4.73453253409579    2.65762583403674   12.04389157575921
C        -6.01324520466083    2.73429736110941   11.48914040283686
C        -7.06053534165023    3.16917719665259   12.28849423589627
H        -8.05766593977873    3.23740705366586   11.88180089536273
C        -6.82082615615611    3.52299429892174   13.60295240039881
C        -5.54939750993686    3.46938797400921   14.14437682924085
H        -5.38365496914577    3.76807921287112   15.16780889587243
C        -4.48714292788716    3.03549824721661   13.36619599137951
C        -6.26267657076714    2.36764382030074   10.05870408165218
H        -6.44373771445934    1.29621528979924    9.96365754393627
H        -5.40922997630725    2.63214486842427    9.43784908588277
H        -7.13963718913912    2.88826872941091    9.68427282137661
C        -3.09907064750446    3.00916148582273   13.92490947954431
H        -2.59557301730075    2.07120719799618   13.69736482157473
H        -3.11683421137232    3.14447273418405   15.00240772018371
H        -2.51682721313660    3.82027615941967   13.48474388950583
Br        2.70866646636770    4.09662148086519    6.55706837638469
N        -1.90474355597767    2.18607888690996    9.99643493223428
C        -2.15490061647148    0.75689886132891   10.18318207947538
H        -1.29808845514625    0.28130962880240   10.66759508096647
H        -2.31343350711526    0.27160297022666    9.21581658608312
C        -0.82909229720627    2.65765999729347    9.20238925098531
C         0.44942824726825    2.73447609274742    9.75756496287856
C         1.49697314949759    3.16924525453808    8.95849501127505
H         2.49395662619189    3.23761339806701    9.36552333592646
C         1.25770889820970    3.52278243501391    7.64388122348404
C        -0.01356625656193    3.46924131765067    7.10208892998718
H        -0.17897736749737    3.76781623325641    6.07857129745215
C        -1.07607451114272    3.03542658623598    7.87998059910794
C         0.69836217188917    2.36802620391980   11.18813906393888
H         0.87920350114621    1.29658550824358   11.28347923554170
H        -0.15524203155754    2.63281124166320   11.80866055830247
H         1.57529084679940    2.88858786493636   11.56273157825962
C        -2.46394724992741    3.00903131872368    7.32084421570609
H        -2.96755387048026    2.07108313354081    7.54830190622550
H        -2.44583113915307    3.14429304531347    6.24332006031113
H        -3.04628646225868    3.82021790762124    7.76082434078160

