79
CSD_code = IFIRIZ | q = 1 | S = 0 | Stoichiometry = C39H30BN8Zn(1+) | MND = 5
Zn       -0.93331199578807    2.54690001796450    6.89570916339985
C        -2.16176548882094    2.03666718452852    9.63363707850904
C        -1.24168541862639    0.94307414885490    9.95769120394303
C        -0.24610442792115    1.12153604015348   10.91331792193618
H        -0.19180455206288    2.05308196544203   11.45754209147362
C         0.67484602081849    0.11833358945589   11.15331839668946
H         1.44922169734601    0.26579232630131   11.89116316544327
C         0.60290363415607   -1.07526732091150   10.45364530636163
H         1.32218674871426   -1.85746816397919   10.64365170586271
C        -0.40522126008028   -1.27033450954754    9.52471990182210
H        -0.47959021019438   -2.21017833193882    8.99708274783399
C        -1.32250204509492   -0.26556535320914    9.27384760857984
H        -2.11948841773134   -0.41956077011255    8.56116418444657
C        -3.08621732094124    2.71925858550816   10.42685315018925
H        -3.32300373869979    2.53402069046519   11.45389832621009
C        -3.63865934511298    3.66640292344106    9.58610761988336
H        -4.39221452131051    4.40206231115188    9.78153048406640
C        -2.74280232317093    2.24830561849592    4.28102143902657
C        -1.90243113897902    1.36109371329321    3.48456421526065
C        -2.47387941407132    0.34529417239910    2.71951126110991
H        -3.54573972345442    0.21610647289101    2.71931702730038
C        -1.67334533081928   -0.50233369858241    1.97661769088887
H        -2.12463227694424   -1.28585093351151    1.38701561861171
C        -0.29645639840707   -0.34625688966516    1.98287665441880
H         0.32552340138682   -1.00753985531453    1.39925728344221
C         0.27836100195185    0.67263634375987    2.72526642360659
H         1.34948017682675    0.81175533760353    2.71412362945276
C        -0.51851682672136    1.52237401496762    3.46847950386519
H        -0.07863341376830    2.34090857653316    4.02021239120041
C        -4.01018496782354    2.74505056979481    3.95376426445915
H        -4.57654679389212    2.54856177067079    3.06777039274252
C        -4.34320171331595    3.57622118890674    5.00029186618627
H        -5.22000884197834    4.17122838142034    5.15440469812269
C         0.25615637734824    5.47091711399858    6.70207453466305
C         1.65758421678340    5.10668342715848    6.53345977134765
C         2.01794799196002    3.95495282644308    5.83711958690259
H         1.24815440414190    3.35872952840988    5.36620124936558
C         3.34428858341927    3.58392370063220    5.72934398561934
H         3.61034125855870    2.68747677594672    5.18790639133371
C         4.33286452419747    4.36532088620549    6.30595572560958
H         5.36937711424210    4.07782520900685    6.21856378141837
C         3.98712991239618    5.52389858762370    6.98211237460371
H         4.75590894047967    6.14117338617403    7.42141848937719
C         2.66022260212192    5.89454743515117    7.09668373394756
H         2.39471041600246    6.79153193826180    7.63517551610148
C        -0.30701573214037    6.74725612258342    6.82688075911166
H         0.19540572515248    7.69029468239754    6.77420064415863
C        -1.65691435687528    6.52291374215120    6.99372498635542
H        -2.46039849490325    7.21947759764373    7.12033391318519
C        -0.99414126636916   -0.36041340224557    5.82783926062411
H        -2.00217344445471   -0.12083886462964    5.52688244741372
C        -0.44205478497604   -1.60532666044071    5.51727405464424
H        -1.02166796412926   -2.31970620274486    4.95573919121280
C         0.83656738634721   -1.89076647800458    5.93042328847161
H         1.30306201526800   -2.83611343019885    5.69656667702485
C         1.53340755382973   -0.94173689126857    6.69769516181913
C         2.83114775838149   -1.17836032673701    7.23580997871822
H         3.31363199387360   -2.11658254079115    7.00747698624524
C         3.43628575097818   -0.26161615033567    8.02891218022529
H         4.41356804299942   -0.45058923308965    8.44634964263223
C         2.79239665231170    0.96714320735462    8.35137391979848
C         3.34925661988596    1.92526553864715    9.21474260544045
H         4.32426518266795    1.75388378447944    9.64575650305424
C         2.63114131852786    3.05899531489591    9.50746794407952
H         3.01876736540557    3.80755456144027   10.17916386202024
C         1.37871911321378    3.23978144013785    8.91636034064067
H         0.79067841252364    4.11886368065142    9.13623121006375
C         1.52440076515889    1.25070236496238    7.80149689477269
C         0.88743690571329    0.28626068628649    6.95665845227020
B        -3.20362513845114    4.44205482251343    7.13822871318234
H        -4.11112905153255    5.18719369009377    7.24357695979285
N        -2.17507554406447    2.55631745484351    8.40419229209108
N        -3.06896385203955    3.55159000459440    8.38259647609296
N        -2.36828721776973    2.74535572763780    5.46672854664438
N        -3.34855258882890    3.55792279780747    5.89416326261528
N        -0.71561944169934    4.55573166014514    6.80016277203229
N        -1.87409183710217    5.20369715104330    6.98074232684895
N        -0.34061225228150    0.56865344217301    6.49252954870319
N         0.85202328824443    2.37614977377500    8.07752864138828

