83
CSD_code = IFISAS | q = 1 | S = 0 | Stoichiometry = C41H30BN10Zn(1+) | MND = 5
Zn        8.39141357069476    1.75767236976924    0.24139572079113
C         9.30580353357037    2.15854984683266   -2.64323407374491
C         8.39890829806161    3.27961885588035   -2.90240136874144
C         7.02512608737974    3.06926712412197   -2.96387147037488
H         6.63928527272437    2.06279533828610   -2.89268618665510
C         6.16371909219707    4.13720032310669   -3.14238192615284
H         5.09871073344611    3.96546685849130   -3.20113799953057
C         6.66500229391682    5.42339787494483   -3.25187308570620
H         5.99173095142136    6.25694554179174   -3.38539756297902
C         8.03340113229442    5.63680344067358   -3.21164015574884
H         8.42664179449404    6.63701244631901   -3.31420209750354
C         8.89841912727688    4.57066346994371   -3.04618422810281
H         9.96568865408316    4.73468083258334   -3.01705839658192
C        10.37063921531383    1.65974591577827   -3.39657440374564
H        10.70803898660835    2.00409397998447   -4.35173382523918
C        10.87178200571551    0.61328173948644   -2.64685631459524
H        11.68746214115457   -0.04993873793888   -2.85128571228947
C         7.08937834090262   -1.03269089892638    1.09938353891086
C         5.87428464223001   -0.56273831418131    1.75521468597685
C         5.90360994718032    0.57141668537885    2.56428908688945
H         6.84712952099645    1.07025430666021    2.73367008827054
C         4.75145979419588    1.02644163644081    3.17631008548585
H         4.78703563131407    1.90136423506895    3.80855905227042
C         3.55529280765202    0.35153356004285    2.99317846354721
H         2.65603455427452    0.70492151588521    3.47380477789713
C         3.52031282618711   -0.78890906973394    2.20695203262296
H         2.59262156569541   -1.32478012702361    2.07571080433604
C         4.67076199112812   -1.24721587949834    1.59231414955679
H         4.63906515335822   -2.13139638275540    0.97358702741187
C         7.48622808306265   -2.35784330726687    0.88393928445993
H         6.95532802869755   -3.24730674403528    1.15088442283213
C         8.72829654510511   -2.26199312959708    0.29657787028594
H         9.39969544954302   -3.03234087010876   -0.02334585062724
C        10.77403280331889    2.17050262842166    2.26882569615158
C        10.25097336743674    3.35175107620963    2.94429940834128
C         8.88019357081584    3.52332200959921    3.12546469290726
H         8.20247959341697    2.73747491019513    2.81986432598826
C         8.38686879401757    4.67482655634149    3.70789668891200
H         7.32161181623451    4.79619730837010    3.84219408001415
C         9.25624028710591    5.66829426740977    4.12865935395905
H         8.87077859181428    6.56684399006339    4.58526575572351
C        10.62220929589593    5.49755342116926    3.97390315555000
H        11.30267449413810    6.26352557176181    4.31322780264149
C        11.11884364139303    4.34891145056603    3.38656857750176
H        12.18317982398231    4.22598411751036    3.25588577409301
C        12.00383312753685    1.52594538686771    2.45248891864594
H        12.76373254248531    1.76145988631017    3.16767399323969
C        12.00416593135596    0.49691197540803    1.53488895224168
H        12.74693069360457   -0.24842550722915    1.33606937925181
C         5.33934780739567    1.70375729630061   -0.24528179742609
H         5.49560135931218    0.64413640574969   -0.37331960881168
C         4.05798637261026    2.24396979665134   -0.33063179855224
H         3.21475948056469    1.59529140564841   -0.50314401970825
C         3.89766054637284    3.60450560590562   -0.19199293380143
H         2.93194984157497    4.08309264730430   -0.24086530017071
C         5.03642495780476    4.39827038584965   -0.01286095831805
C         4.96338333188684    5.83847151550553    0.05083304433715
C         3.73126098539171    7.74187534464044    0.01988750899367
H         2.75491843148197    8.20110278879697   -0.03705212643088
C         4.90343304002980    8.50439160766618    0.12989012818363
H         4.88040987193246    9.58409724137489    0.16325519632240
C         6.14095203302185    6.60452043356174    0.15914270248967
C         7.42687047136648    5.95215319977171    0.20586624559117
C         8.62676350391084    6.66974082197807    0.25732017210050
H         8.58759773843171    7.74709390961392    0.29547811885768
C         9.81465456867925    5.97371562203919    0.24004460047930
H        10.76227294431174    6.48673829967245    0.26198489458238
C         9.77851154210240    4.58200774736869    0.19128535419720
H        10.69332423552858    4.00847827752237    0.16103392260466
C         7.49270804974750    4.54954861141522    0.17373751453644
C         6.28710069918948    3.76329558243633    0.06909239342254
N         9.19450914483691    1.44500575799793   -1.51973952748044
N        10.15385121437854    0.51202984929111   -1.52431814680376
N         8.03893495159740   -0.20838948047629    0.63803010196665
N         9.03700987224598   -0.96823187885723    0.15725469609596
N        10.10170228706631    1.55151298730850    1.29088736022983
N        10.85794369097484    0.53860777837351    0.84780309984025
N         6.41589023640076    2.43212443247794   -0.01661832735850
N         8.65619373159835    3.89195885513325    0.17754274400451
N         3.76537511637855    6.42979334176202   -0.01952448935460
N         6.08752748172571    7.94065521478999    0.19675490642828
B        10.37806468883635   -0.37833774061583   -0.29307336692674
H        11.16634962542130   -1.22553714928879   -0.51818529246627

