63
CSD_code = IFISEV | q = 0 | S = 0 | Stoichiometry = C28H24N6NiO4 | MND = 6
Ni        1.16369003738264   -2.65662693002504    7.76779192447785
N         1.31309266024653   -3.06534302821810    9.51746365302136
N         1.05521249965361   -2.17266228185256    6.03435753030116
O         0.34957920628126   -0.64288702474667    7.95757143281395
N         1.80234207982316   -4.55787420569302    6.83543112120679
N         0.64038504549207   -0.97341357529376    5.71766044304522
N        -0.87589760421187   -3.45719041712071    8.11841211593573
N         2.44882339863784   -2.87314191382595   10.13596258364138
O         3.26421171158330   -2.16806686677298    8.12366603546259
O        -1.36356106076218    5.06281297620899    5.84347151325943
O         8.29695069553282   -1.25470155884599   11.90240760737244
C         2.21561681549825   -5.72586806859591    7.29266584015332
C         2.74462243721093   -6.71346444528958    6.47601807017898
C         2.84607782551944   -6.46266251946801    5.11279676120575
C         2.42319435284988   -5.24499364798173    4.62346491417104
C         1.90421294906650   -4.29656807156799    5.51455749124999
C         1.45787130695548   -2.99767102648965    5.11072779408433
C         0.30352463279738   -0.21851590045431    6.78160298496011
C        -0.13382096600960    1.15587096020717    6.48780474965399
C        -0.18308729930982    1.64102542997791    5.18534990106766
C        -0.58815155155156    2.93687835679774    4.92818861909587
C        -0.95238553385129    3.77407017489956    5.98022873830727
C        -0.90427547581299    3.28836127138817    7.29054507172885
C        -0.50009987645224    1.99826443222514    7.53901226467398
C        -1.42365010570393    5.62142870533381    4.55362616220689
C        -1.96596277733866   -3.58519885175398    7.38394733876420
C        -3.19693140014899   -3.94207936473120    7.91263771128227
C        -3.28894573755137   -4.17518720949841    9.27968174049334
C        -2.15925208962151   -4.04046385199931   10.05851925506575
C        -0.95286537411536   -3.67121539816432    9.44928635122771
C         0.26815457056136   -3.48291388508565   10.17262577544469
C         3.42222408949466   -2.37974115233823    9.34666163057586
C         4.70553138121260   -2.09368063861468   10.00840056925169
C         4.91206984754091   -2.38307245815328   11.35806012102182
C         6.11814997235196   -2.09380810950484   11.95163718967561
C         7.15017686225211   -1.50280359254599   11.21526817245664
C         6.94828472958073   -1.21336893272936    9.86833784787021
C         5.73540223841489   -1.51024925928639    9.27770053030255
C         9.37001208320573   -0.64243903404561   11.22894939434427
H         2.11890473391141   -5.88599074912841    8.35897210532189
H         3.06777507680055   -7.65278877032479    6.89508432110538
H         3.25274949513098   -7.21035819925356    4.44741401844255
H         2.49174154863808   -5.00888997206046    3.57297599056901
H         1.47059119439772   -2.69476572526481    4.06964156472899
H         0.10308058319333    0.98929519203000    4.37515432305526
H        -0.61490066296575    3.28618404260839    3.90769488632674
H        -1.18902118827514    3.95251372432544    8.09146798015260
H        -0.45563744340650    1.61504803998209    8.54702699562116
H        -0.43982213956336    5.63170446374081    4.07360133335287
H        -1.76656814011477    6.64568864819440    4.69200343822586
H        -2.13421963919315    5.08587213352290    3.91573499907737
H        -1.85527637948174   -3.39775682621790    6.32341667012525
H        -4.05952122606706   -4.03520281453911    7.27256136234629
H        -4.23245352257225   -4.45561158881792    9.72498309857541
H        -2.19030136600958   -4.20542149176374   11.12422550934988
H         0.32378066539582   -3.65895905872315   11.24108125111124
H         4.11188361866043   -2.83274044038662   11.92359441759957
H         6.29690865893694   -2.30932773515282   12.99349058174804
H         7.72539291000952   -0.75708039882807    9.27515460807976
H         5.56611788977150   -1.28794294455002    8.23482052514967
H         9.73168699160458   -1.26131089283074   10.40145064484937
H        10.16065230321875   -0.53600100951623   11.97014355176956
H         9.09452946127515    0.34690328661287   10.84990687226696

