59
CSD_code = IFIVEA | q = 0 | S = 0 | Stoichiometry = C22H34ClNiP | MND = 5
Ni        7.29860596867445   -0.21469478951430    6.25180715875909
Cl        6.20981735607503    0.04324750365157    8.01386325293561
P         7.46629118648906    1.91090389172753    5.89722316276635
C         8.04915535229200   -2.04799965771579    5.69839911369658
C         9.08132190140993   -2.66566907346257    6.43909290655038
H        10.10884099168515   -2.42295593260196    6.20334665979494
C         8.78807166834934   -3.58312715837345    7.41836895325743
H         9.58914999535400   -4.05751996159038    7.96692028034418
C         7.46445979949950   -3.90541567548465    7.71697523563726
H         7.24962009565241   -4.62486362075385    8.49267519714765
C         6.43285379354238   -3.30753111873032    7.02338583767812
H         5.40678339094751   -3.55467439729854    7.25528687945011
C         6.70515418310033   -2.37340044955096    6.02817043252652
H         5.88818496972698   -2.00767965589535    5.40033792369113
C         8.27028168904679   -0.97410384003132    4.76250306542534
H         7.63282448873446   -0.97717395372049    3.87729873919910
H         9.31131176985151   -0.77104772298975    4.52000551818149
C         8.92920226230375    2.64032233106352    6.79899300179467
H         9.08927455592006    3.64797309243436    6.40474702772484
C         8.70551497504392    2.65215097471731    8.32919385539611
H         8.81181944595735    3.65555116826367    8.73956048709482
H         7.71048796088742    2.28380648922493    8.57327424070076
C         9.73342152799824    1.68125395863637    8.92181183024501
H        10.63631059819258    2.21051594661689    9.23360450004488
H         9.33278669811762    1.14359246401912    9.77844061136124
C        10.05343749673281    0.76379810104789    7.75152284241825
H         9.19308126017013    0.09193577840186    7.57139451638722
H        10.94840399854020    0.16178717978108    7.89902121529457
C        10.16255890034427    1.74897093364606    6.59736924910044
H        11.07591023127665    2.34043715715025    6.69458939772297
H        10.17151804396337    1.25136383251837    5.63084982327233
C         6.05996087347023    2.91957526412532    6.58357317566999
H         5.94813137121341    2.55807174914883    7.60735234514673
C         4.72402453536792    2.66932035610675    5.85038754107605
H         4.80324730167739    1.88080331155174    5.10343260700821
H         3.97162167325642    2.35553146071406    6.57383440887070
C         4.33260188905478    4.01732720406073    5.24949411504342
H         4.80999681020428    4.16220294274173    4.27888581212271
H         3.25595910120722    4.11449961131638    5.11817372587389
C         4.89505776511865    5.01939437861772    6.25185933340850
H         4.26746693719768    5.03678467974029    7.14354074451632
H         4.95494850677453    6.03086322669369    5.85102800077163
C         6.26882976955725    4.44330813792599    6.59312844185549
H         6.99046630095196    4.75720448023147    5.83755796044785
H         6.63031414060908    4.79007355774971    7.55948184172181
C         7.62393766428166    2.58612946952944    4.16461826584734
H         7.38910950147819    3.65342500311987    4.21207962628911
C         8.99827183404172    2.43152845550402    3.50886133908918
H         9.71778868884187    3.16965643696325    3.85914681589648
H         9.39270359153679    1.43319301742785    3.69345738401778
C         8.68163264688953    2.55994469904691    2.02296723715622
H         8.44826283885119    3.59739112065381    1.77694168376791
H         9.50250248612789    2.23085349914249    1.38741507204065
C         7.43814102287618    1.68607036927827    1.87479728551341
H         7.73912177305510    0.64253988131839    1.77564894546435
H         6.84828141967314    1.94966965245695    0.99811551652742
C         6.65538082613165    1.89630649596224    3.18156394718667
H         5.77467743351955    2.51215028476040    3.00623875708924
H         6.31700474114666    0.94002745892594    3.59008515498254

