63
CSD_code = IFIWUQ | q = 0 | S = 0 | Stoichiometry = C28H28I2N4Zn | MND = 4
Zn        0.58137685387370   13.27210302235832    0.88108662167586
I        -0.51528210048808   11.08482418467318    0.33889483555163
I         0.24354527977218   15.65840844502667    1.58044812479908
N         2.04411617863105   13.62299090057883   -0.87354321644499
H         2.08967904437708   14.63908712388328   -0.96399546881247
H         2.99869905584205   13.32152672656119   -0.68080952789419
N         2.17418190511422   12.92975551281638   -4.56530345188967
N         2.03279259516515   12.50738819816801    2.50144990911128
H         2.21933409174698   11.52427644981221    2.30104123781398
H         2.94063738330983   12.96957718224490    2.53860389616518
N         1.68778041930231   12.04404698936549    6.21597456946799
C         1.21077700963401   13.42721192104767   -5.41681576367924
C         0.45474347126510   14.58592467743063   -5.31913055877531
H         0.55292074517029   15.26178483598646   -4.48222811796639
C        -0.44331924821054   14.85846270427425   -6.33379780651644
H        -1.04464486489509   15.75376735999139   -6.27917803319411
C        -0.59208234683810   14.00230347875146   -7.42190276268810
H        -1.30543609682251   14.25024399109443   -8.19337859451196
C         0.15508980010851   12.84579750732055   -7.52347916032252
H         0.03799625491040   12.18117251011893   -8.36582658235186
C         1.06341911002298   12.55002780597454   -6.51595086858608
C         1.97474126153241   11.46246023804451   -6.29426531496544
C         2.28085627754330   10.31181488454418   -7.00801932199337
H         1.78507525200680   10.10120727397204   -7.94329051414335
C         3.22759105626573    9.44711946254524   -6.49591375071853
H         3.47972283031965    8.54617597048252   -7.03462687725936
C         3.86423132182797    9.71662167987002   -5.28740778171095
H         4.59729175766635    9.01957332078237   -4.90896443092025
C         3.57632348875249   10.85543488101303   -4.55908975867298
H         4.07913436973402   11.04363816163672   -3.62145239060187
C         2.63011236723899   11.73131444282606   -5.07011223040535
C         0.72101650584470   11.21799198673883    6.74902470966720
C         0.14424641557608   10.07263016853713    6.22044534601563
H         0.41511334975738    9.69465618185235    5.24561633985078
C        -0.80614027198541    9.41852726759254    6.98157787166381
H        -1.27145236181418    8.52632395778407    6.58991601361246
C        -1.17969998413364    9.88775725461749    8.23837232483238
H        -1.92684987043988    9.34867438195015    8.80121570435931
C        -0.61273011883110   11.02976649193109    8.76800689238186
H        -0.90504731460646   11.39553958982960    9.74058442786716
C         0.34359465866167   11.70521700781570    8.02169954958798
C         1.11170117270074   12.89783922154283    8.24600859196572
C         1.17930728406639   13.80849492056909    9.29172063699869
H         0.56777181188522   13.67639547985530   10.17127707210614
C         2.03981780526060   14.88239295814855    9.17985751333015
H         2.10635169378639   15.60319275491018    9.98084062948407
C         2.82452933506792   15.05600474126070    8.04287785867190
H         3.48346136527807   15.90928541889863    7.98011101292497
C         2.77546831150547   14.16248138412522    6.98963356481096
H         3.38849983829947   14.31937196403114    6.11409536126572
C         1.91758809510566   13.07804393510444    7.09784505500985
C         2.56301990517249   13.51475988411093   -3.31816258853451
H         2.53003267444059   14.60644278070468   -3.41270447880909
H         3.59669393629695   13.22330406280003   -3.10031898374617
C         1.64157978607049   13.06506190363723   -2.17117149516631
H         0.61755896167651   13.38165111786258   -2.38720970037148
H         1.64978106713909   11.97427003185486   -2.10390359719112
C         1.42552811554882   12.58934995580564    3.83729826941118
H         0.44055824265760   12.11412919946441    3.80517177222078
H         1.28969759944488   13.64237989408719    4.09733099271816
C         2.27791862638731   11.90504393067404    4.91937328686833
H         2.38146948450112   10.83825505240164    4.68930198823171
H         3.27940935578811   12.34952327629401    4.93955114836546

