67
CSD_code = IFIZIH | q = 0 | S = 0 | Stoichiometry = C23H39FeP3S | MND = 6
C         0.93641525465099   -4.77730693828154    0.42913621922795
H         0.27800241956647   -4.23752276175097   -0.25461384059107
H         0.26752081105510   -5.34104977117366    1.08314593774235
H         1.46314711337102   -5.51510618046592   -0.17542128283749
C         0.86165025821725   -2.46962712436114    2.26817009994749
C        -0.51545824392131   -2.65557199440280    2.13071940223908
H        -0.87657372600363   -3.44298614099466    1.48935616611491
C        -1.44629110772118   -1.87944025628427    2.78941438951140
H        -2.50301253781756   -2.06485615358096    2.64763625906221
C        -1.03288721914420   -0.87349291821299    3.65837137640652
H        -1.76102943798649   -0.28983300331694    4.20418465857965
C         0.30865411662095   -0.63678969829933    3.81880972344231
H         0.64786621683218    0.12171963929346    4.51044812938159
C         1.25774390758342   -1.39507624249834    3.10817064078655
C         2.65392156609186   -1.16490414762656    3.24590941309338
C         3.26344683225474   -0.04067106793801    3.93808719857772
C         2.78742560834603    1.26150122534743    3.76470600983104
H         1.95679265187107    1.44118793301863    3.09684387659597
C         3.39504955258860    2.32163456255694    4.40892973120956
H         3.01810464724154    3.32386000721595    4.26158137041497
C         4.48609077325428    2.10700895525085    5.23523506473494
H         4.95427278515778    2.93799701892620    5.74226670090282
C         4.98013891966136    0.82244008325269    5.39809160766429
H         5.83741220061062    0.65002306892873    6.03308048912675
C         4.38061851684488   -0.23913450297967    4.75155436615893
H         4.76264698128891   -1.24239125765776    4.87255212344614
C         0.26971487965408   -1.40012775645327   -0.48231785121761
H        -0.54213848942309   -2.12183182801045   -0.51234415849907
H         0.08319709264981   -0.69915929356825    0.32881822049086
H         0.31205335339303   -0.86217310955484   -1.43065793212259
C         2.91799727775791   -0.72488610412942   -0.27885931329160
H         3.97417169331481   -0.98509225832686   -0.27342296633958
H         2.70853716482433   -0.13753359638372    0.61579450326255
H         2.68450741512814   -0.13187839672884   -1.16359989489465
C         2.09232110778522   -2.87403607551515   -1.93526173239138
H         2.18961841599798   -2.04426575134053   -2.63531083854689
H         2.96810717114277   -3.51371369196711   -2.00002349995169
H         1.21764667843738   -3.46635056485012   -2.19677373529106
C         5.26142866600716   -3.55709951108749   -0.22145396442812
H         5.56904340665271   -2.76508596776700    0.46026351197108
H         6.13148329009550   -4.15321842328364   -0.49836481116263
H         4.83415444289601   -3.10594458733805   -1.11320904500970
C         4.00083886758036   -6.04527274024427   -0.48930519330551
H         3.49733779269842   -5.76925070039937   -1.41392294786001
H         5.01970282091453   -6.36260383561329   -0.71127522794609
H         3.45502830851120   -6.86824753888591   -0.03187696991321
C         5.21931756828358   -5.24716028994289    1.90534566617147
H         5.53338564393836   -4.40768030583706    2.52438700145886
H         6.09074508505600   -5.67524318800741    1.40903630012626
H         4.75982152025226   -5.99951524064489    2.54101559241203
C         1.99026857851761   -6.72004776693315    2.85469870196500
H         2.89471772924545   -6.94204806727682    2.29502306117854
H         1.13851678944196   -7.08683467490272    2.28527419165359
H         2.02279101213175   -7.22297150695757    3.82134841913284
C         2.80117345771613   -4.63827161735816    4.60625289379343
H         3.86316488545415   -4.70492093825258    4.38073631355769
H         2.53728949557162   -5.36307471724066    5.37696374568911
H         2.59011072982480   -3.63126948589517    4.96842498674808
C         0.16644475457655   -4.94511937664102    3.91808028537919
H         0.17649949523412   -5.74494935818442    4.66011556678367
H        -0.02021804470082   -3.99214019710947    4.40900456113051
H        -0.62736082869705   -5.12952932339674    3.19928888757823
Fe        2.25597664757885   -3.57419454982711    1.44152565504851
P         1.80086474766448   -4.90050929954880    3.08453130326008
P         1.87891823053350   -2.24252970368147   -0.21534233520170
P         4.02788296085460   -4.60598026185326    0.65571996989318
S         3.65396932491681   -2.28365073303634    2.49690724790577

