59
CSD_code = IFIZOO | q = 0 | S = 0 | Stoichiometry = C26H25ClN4O2Ru | MND = 6
C         2.30381134076520   -1.97841854319986    6.54737151894978
C         2.53180595341364   -3.28551884562257    7.07334322374806
H         3.14687823035270   -3.34036088083273    7.95866496013233
C         2.01358328234391   -4.40764762418385    6.49670785436242
H         2.21848520830566   -5.37760809354225    6.92635627723647
C         1.21109203469160   -4.31274675274767    5.35145735068399
H         0.80146981699924   -5.20342086675710    4.90093198269111
C         0.94583874227926   -3.08033273496287    4.82532003206154
H         0.31752458809659   -2.99712936424703    3.94856886286880
C         1.47397014582169   -1.88956856975570    5.37479365333977
C         1.08021069027370   -0.67403293575603    4.74844582364085
H         0.28706663743760   -0.78811477698607    4.00948071198334
C         0.99326500709755    1.71695377226287    4.41093928704533
H         0.23765611898946    2.06956447181206    5.13235708174454
C         0.34746545702346    1.57312171695597    3.03086244727325
H        -0.48274100246950    0.86734090380621    3.07397943295835
H         1.08855663450233    1.19278824836789    2.32304543358783
C        -0.18918845238110    2.92121780808281    2.55697237794910
H        -0.63073248028062    2.80778083500726    1.56554552651547
H        -0.97493285673679    3.25397991061926    3.23809953615656
C         0.91960671494952    3.96422181517177    2.51572233785264
H         0.51516923905062    4.92379240766022    2.19011842011961
H         1.68131030524998    3.65972437624154    1.79441147370484
C         1.55922516535082    4.12324129443565    3.89235511833419
H         2.36250910047189    4.85950014923264    3.82620889579243
H         0.81400597467902    4.47839392553726    4.60738795993630
C         2.11849072731146    2.78093478158868    4.36653680532121
H         2.87275570029310    2.43562058866263    3.63745704620436
C         3.06929240559313    3.84009265173804    6.33282634465456
H         2.82015119194817    4.81448378104176    5.91376809341398
C         3.72169631898834    3.89455084030549    7.59249905775112
C         3.91688159152404    5.18330577109705    8.14243523914753
H         3.55842258985073    6.03401971257073    7.57815751191045
C         4.53076272950114    5.38189383289113    9.34548525093348
H         4.66108523837142    6.37781572601911    9.73970987300988
C         4.98971977686986    4.27241172473079   10.06961540152954
H         5.47356985316648    4.42145338687222   11.02418748756982
C         4.82551447049562    3.01048817805047    9.58010437474243
H         5.16849252301421    2.14583100809108   10.12782899561725
C         4.18496440622988    2.75094601975560    8.33247580067247
C         5.79852751406712   -0.88740063053919    4.27434703028735
C         5.17491590183180   -2.13445799922064    4.38998221664896
H         4.25012426381861   -2.21480276163803    4.94255437442498
C         5.75859413860150   -3.23959126627404    3.80631683412553
H         5.27860562840047   -4.20221259072471    3.89898387062341
C         6.95272131505476   -3.11816854821877    3.11068934632466
H         7.40485603256089   -3.98857852445136    2.66028293164315
C         7.56884599386239   -1.88073397502933    2.99746181427678
H         8.49940457568785   -1.78919653445148    2.45775232280574
C         6.99978212723916   -0.76299003332610    3.57518233241328
H         7.46937601449754    0.20522744574088    3.49804748436784
N         1.56016499138076    0.50004064638206    4.96911808429946
N         2.77060913842532    2.77990702771051    5.66400551996966
N         4.26878971388112    0.48977138650235    5.44813104530394
N         5.25315633742481    0.22891762466117    4.85563004299299
O         2.84811472900085   -1.00484696353518    7.16616013259650
O         4.09778496898160    1.53092920359796    7.97267808681665
Cl        1.13154731966201    1.43260618700629    7.69581440340822
Ru        2.90966817618420    0.92681065578923    6.39172726351940

