75
CSD_code = IFOBUD | q = 0 | S = 0 | Stoichiometry = C29H40AuO4P | MND = 4
C         3.85051648667973    3.82855007631043   12.40295113772706
C         4.35849711660498    2.56665242231926   12.63442638107834
H         5.40632582517748    2.38824274349989   12.43164264016868
C         3.58708753704647    1.51540639002479   13.13586482088359
C         2.24912561063680    1.77124076328713   13.39836261486468
H         1.60142709054567    0.99574498320020   13.77474029633056
C         1.71458814483217    3.03163161845311   13.19865007789002
H         0.67322288419796    3.20481075944623   13.42986607186269
C         2.50180837239983    4.06652551426061   12.71596630663215
C         2.08196173611819    5.44467416997100   12.53300654889516
C         0.81725691115984    5.95843983898472   12.79478767771489
H         0.02744867104914    5.30381276929807   13.13446502310757
C         0.55996486662787    7.30379988396099   12.62610930572163
H        -0.43319535257082    7.67069713743972   12.84174809400152
C         1.55144857720348    8.17941639228230   12.19562283093337
C         2.81317897676590    7.65170451481469   11.92872293998217
H         3.60231317928393    8.30580529575813   11.59872570029638
C         3.09139300417283    6.30723722851110   12.08881186423637
C         4.23705317634004    0.16134531481667   13.38263892744743
C         4.84644754586872   -0.36345090839351   12.07457372941547
H         5.23716430500206   -1.36898264543870   12.21922358911369
H         5.66419142646953    0.26763414584364   11.73642064862048
H         4.09029637471203   -0.39548938433760   11.29270594888605
C         5.34046812761141    0.32253118321121   14.43800858148603
H         4.92021372850298    0.70818993357874   15.36448159068297
H         6.11102766187443    1.01212384712807   14.10274388106819
H         5.80918979334837   -0.63811287220158   14.64324686131216
C         3.24081203031164   -0.88403280302421   13.89198649719326
H         2.80470881146404   -0.57898174374052   14.84020764544199
H         3.75475259237935   -1.83082566663003   14.04858593132189
H         2.44480089575219   -1.04817085303195   13.16935595920830
C         1.23778875852869    9.66008262761817   12.04271784967633
C         0.07585518472231    9.83245478347686   11.05409438453840
H        -0.14582065514210   10.88903352263985   10.91572345085920
H        -0.82520183178774    9.34049618955689   11.40963486247107
H         0.33916013035251    9.40504552243724   10.08868609368550
C         0.84046875898371   10.22409877173532   13.41435527022909
H         1.65533391885312   10.09169707337343   14.12310879580181
H        -0.03786725225225    9.72012946555571   13.80856043190323
H         0.61858284469227   11.28674084436694   13.33537696690302
C         2.42925035041402   10.46686361561005   11.51970685149469
H         3.27827765728442   10.39677858674512   12.19497294808855
H         2.14834282671435   11.51539724665495   11.43470818655852
H         2.73452003489955   10.11773909647245   10.53575957138375
C         6.70250517391188    2.89139729234325    9.96401027753081
H         6.29879552164949    3.26219871599134    9.02224219661945
H         5.99987583706584    2.16886820595498   10.36949027596440
H         7.67573454295127    2.42648180535658    9.79973420962548
C         7.89616570804071    3.80201319694758   12.47373890596791
H         8.75297867313393    3.22547965189435   12.12326785953082
H         7.31464512863439    3.21696416851636   13.18267274858858
H         8.23745692452051    4.71168116591810   12.96893929337011
C         8.09212027641533    5.30914995487258   10.13308608500010
H         8.97085121761422    4.69302367779546    9.93506155233134
H         8.36997413027771    6.17746517862637   10.72859566942985
H         7.65391136768527    5.64204155668733    9.19384921369139
C         5.69563445086554    7.17541144684657   10.98479734057825
C         6.47556044396871    7.93129405144980   11.95946216258505
C         6.50701375924637    9.75794015471710   13.42807537671226
H         6.52122562624606    9.16089428705926   14.34259498942398
H         5.93264718568021   10.66884930821681   13.57802665298103
H         7.53514350295860    9.99437731645446   13.14512195478681
C         5.61337394564045    7.50245466073344    9.69078130626279
C         4.91029534465402    6.59768813737184    8.79107029655167
O         4.52916201812738    5.47764176457095    9.09592432377655
C         4.06349146815884    6.27032828051691    6.63407828514630
H         4.66183988961238    5.38712646185324    6.39793205327831
H         3.91088773957071    6.87405640445793    5.74307195114472
H         3.10760847769183    5.94466657190243    7.04941997424248
Au        4.83542191594794    5.41622304118549   11.64401719528851
O         7.54898065702094    7.55875709641689   12.39192849475354
O         5.85816064247407    9.04588149290031   12.38677720547794
O         4.74823202661098    7.09734384529233    7.56260045428352
P         6.86157280990220    4.33902647780339   11.06796427546259
H         6.04164675989345    8.38934723350854    9.24001163249831

