37
CSD_code = IFOCUD | q = 0 | S = 0 | Stoichiometry = C16H14Cl4O2W | MND = 6
W         1.29519702767341    1.76726464721842   16.56226843708913
Cl        2.16661389594645    3.86501809283300   15.93757953344048
Cl        0.49923046105542    2.66842933777425   18.42408427876632
Cl        3.32429990523257    1.12438137914030   17.17949807084628
Cl        0.44731270097961   -0.32617533835938   17.23011143300633
O        -0.30938146674854    2.15572044498338   15.66923438532618
O         1.60088324180801    1.11783440462105   14.82746636833382
C        -0.46199809125950    1.86664125901235   14.37719104022764
C         0.66378678047005    1.21318753547639   13.88408378389983
C        -1.69146585664280    2.28715136643748   13.70663781937215
C        -2.86449012584396    2.35772985646245   14.46261696730387
H        -2.83245801705457    2.06981934477947   15.50365030106566
C        -4.04250281457768    2.77947228272985   13.88382003126879
H        -4.94467541375943    2.82223726781901   14.47633378471574
C        -4.08614028742139    3.15526778775394   12.54393060969780
C        -2.90993402930699    3.10793406349789   11.80332505858768
H        -2.92099541860072    3.41438651832836   10.76751526483006
C        -1.72406446964008    2.68375722563696   12.37014567342789
H        -0.81609210716747    2.67458444337945   11.78803686723115
C        -5.37489077478075    3.60418667391752   11.93052689510692
H        -5.78185994112166    4.45065744464115   12.48163642138527
H        -6.11002786481217    2.80119933373613   11.97005891060489
H        -5.23443851138844    3.89691643935503   10.89353152906687
C         0.92408378984295    0.61611863137724   12.57566572173615
C        -0.08501001167603    0.08469587187654   11.77022150607429
H        -1.10958353803427    0.11696683096406   12.10521442911154
C         0.23219131330838   -0.49904043990928   10.56181010198334
H        -0.55538499848161   -0.90923159968913    9.94653678871757
C         1.55158565099159   -0.57824964603141   10.12070774555724
C         2.55390328356417   -0.06627444134225   10.93594677541111
H         3.58434931254437   -0.12688447401143   10.61782137440115
C         2.25004646920229    0.51761168986585   12.14935462547048
H         3.03185876456755    0.91223550931913   12.78238867502797
C         1.87020032605860   -1.22223505649037    8.80832267515991
H         1.67548113337123   -2.29320855899521    8.86149452520448
H         2.91370117690315   -1.07491825659469    8.54320748084740
H         1.24366850479865   -0.81138787151575    8.01852411069498

