33
CSD_code = IFODIR | q = 0 | S = 0 | Stoichiometry = C12H14FeN2O2S2 | MND = 6
Fe       -1.35312779125425    5.09074032422864    3.52205904176567
S        -2.36220006722913    6.72204680005289    2.26754537377116
S        -0.16867309144355    3.46344970614015    4.59521241843680
C        -0.88602583092580    7.33545139201370    5.34662090088125
H        -1.86207457594834    7.08268229597195    5.72989779258392
C         0.80753603768660    6.79133638788539    3.90258294180177
C        -0.20421047105677    8.44657642916925    5.80282695805762
H        -0.64442062679865    9.07338275169494    6.56091962001120
C         1.55476982817422    7.88988512435820    4.30059995485034
H         2.52159758978707    8.07155232930410    3.85646118460669
C         1.04217542438731    8.73723717762679    5.26795999839252
H         1.60105576772081    9.59994794868038    5.59551038687507
N        -0.39777238539920    6.51974756581724    4.41314135828466
C        -2.33024499393356    3.91984212710413    2.66459304407815
C        -2.69094628619222    4.97499988910100    4.64139329211314
O        -3.60609738042324    4.81126826014341    5.30395862543183
O        -3.06395840154496    3.20135832714010    2.16324629263515
C         1.32542480804474    5.78670055548526    2.91562883270506
H         1.88460004546059    5.04539565549595    3.49458900131956
H         2.01359122931729    6.25166221921206    2.19775974533197
N         0.22201598663298    5.09659464347252    2.22629695756830
C        -0.86601802786678    7.09723238334522    1.28169604147030
H        -1.20066710954538    7.56899046082838    0.35840488485525
H        -0.23965539295722    7.80330338570364    1.83209606550667
C        -0.13420658791349    5.80205580735525    0.98407427774882
H        -0.80811513458327    5.15899499764106    0.41199468382244
H         0.76666299712322    5.98905185605412    0.37946517289868
C         0.82335970055585    2.86336001932989    3.16458467401485
H         1.86556619299074    2.86334284814009    3.49012127344008
H         0.53094616120234    1.83167849745828    2.97021307722716
C         0.61290188646617    3.70963407355458    1.91140823699522
H         1.52415615275645    3.70946941119561    1.29428383915231
H        -0.19644565329036    3.27322834929599    1.32275405136657

