83
CSD_code = IFODEO | q = 0 | S = 0 | Stoichiometry = C36H40Cl4N2W | MND = 6
W        10.44231900056046   -7.59673654066311    5.23920795711699
Cl       12.22820874413570   -8.39712928276596    3.88155722526357
Cl       10.48196294390173   -9.67752267436529    6.08691655383147
Cl        8.32900253991545   -7.42558465656102    6.31794204393660
Cl        9.23990816964765   -7.78812451506644    3.35101687250756
N        11.49884209040552   -6.96130898045275    6.81727495608779
N        10.62039276121516   -5.63255165997381    4.88993562664010
C        11.23969266169099   -4.88290730395395    5.84148549161257
C        11.55772736997727   -3.47844237117757    6.04047515388297
C        11.36344381423670   -2.29832163180503    5.36422742903380
H        10.85407560441942   -2.26349361280721    4.41302115869126
C        11.85296412769208   -1.10802135504017    5.93845533572829
H        11.69402976903832   -0.18494837920739    5.40005747515594
C        12.51667721157216   -1.07542743245904    7.13982148552539
H        12.87415026558518   -0.13792223560400    7.53956036625171
C        12.73907823558865   -2.27223145230523    7.86205489717018
C        13.40447267863122   -2.42481871184157    9.10196036848182
H        13.80671599383531   -1.55554266074490    9.60101099514744
C        13.53860698393028   -3.67019485461803    9.66403624387996
H        14.05100994053032   -3.76785980175955   10.61013205419930
C        13.03759099518425   -4.84186643447612    9.06207369307823
H        13.17914608538502   -5.79556914996153    9.54778734995453
C        12.38247045908825   -4.73027623344145    7.85949819967257
C        11.72903176402525   -5.62406651632277    6.91742405010739
C        12.24740150453269   -3.43830305059383    7.28260147047689
C        10.20001170780677   -4.89241808032176    3.73162046388584
C         8.92689868421269   -4.31332259706349    3.70108821035199
C         8.54467672241310   -3.61338802366416    2.56426498358093
H         7.55961391994932   -3.17598009796888    2.51812190113350
C         9.40870505400269   -3.46194478725472    1.49753800959216
H         9.09503668723669   -2.91655980397117    0.62000370305858
C        10.68100889074381   -3.99545246726336    1.56275117539431
H        11.36106599453703   -3.85202664036271    0.73784239090484
C        11.10162482490930   -4.71004302625826    2.67661616909101
C         7.98353104559721   -4.42722839873429    4.87359042679442
H         8.47541549528515   -4.99716993157175    5.67051075248976
C         6.71706214997561   -5.18184448120688    4.46445288532870
H         6.98083026532231   -6.14661354142563    4.03630139746816
H         6.14619266902712   -4.62025307202247    3.72901294992020
H         6.09155307878186   -5.35531629565517    5.33590527703965
C         7.64240316462764   -3.04494703802997    5.43555982625869
H         7.13587656456010   -2.43303884568754    4.69326227768622
H         8.54596476647338   -2.52766963360707    5.75280038746640
H         6.98706911233597   -3.15165064667652    6.29642733733994
C        12.51174531767413   -5.24604283843773    2.74327827542420
H        12.61655188781095   -5.85557656767526    3.64999218139887
C        12.81331749272029   -6.13932506899680    1.53881509396002
H        13.76986166440694   -6.63592975854564    1.67769137500760
H        12.85292729022633   -5.56175186334202    0.61881283007304
H        12.04591394126544   -6.90309510108460    1.43916410283998
C        13.51511555925556   -4.09297327575331    2.83400431959431
H        13.32700114468051   -3.48878640206313    3.71945263776769
H        13.44703827835201   -3.45166858886172    1.95839895601631
H        14.52652177164853   -4.48759890862661    2.89388087064977
C        12.09357148667696   -7.74708790253147    7.86371699009866
C        13.41749420339984   -8.17896780034521    7.72090501197871
C        13.97840029169684   -8.93943100438064    8.73844637596260
H        14.99543000588701   -9.28552692751304    8.64175127293209
C        13.25658266241615   -9.25471740177194    9.87301608351764
H        13.70535477184487   -9.85509933521998   10.65022440802171
C        11.96571864354050   -8.78583040356003   10.01859915525457
H        11.41354817306772   -9.01576137305241   10.91640013998411
C        11.36916348778941   -8.01380660247771    9.03044850512797
C        14.24088135406206   -7.81160256083183    6.50939034438295
H        13.59393033271384   -7.30527778166354    5.78158659922754
C        14.81466862540804   -9.06087151247587    5.83878671662510
H        14.02090389493302   -9.77710204944684    5.64160499989428
H        15.56619470161449   -9.53536446081913    6.46456239417557
H        15.27285858024318   -8.79306991791286    4.89049487730219
C        15.35833332558899   -6.84045046984689    6.90043076666808
H        16.02555485990563   -7.29316781945295    7.63013918275674
H        14.94422653163382   -5.93032853520904    7.32989337204191
H        15.93967866415866   -6.57354827942369    6.02118007893444
C         9.97628536095967   -7.46874243549389    9.23199919692830
H         9.69912434731657   -6.87169071629828    8.35526609236765
C         8.96993309253964   -8.61364894259104    9.36274862740258
H         9.15424193760871   -9.19708399797234   10.26152876767362
H         9.04166103802525   -9.27286009934646    8.50027821993549
H         7.95971395086641   -8.21540614939751    9.40418985405904
C         9.92295895114825   -6.54906136096403   10.45444855130829
H        10.17022604304490   -7.09033575175265   11.36433519664947
H         8.92132662724802   -6.13998886189469   10.56091975198649
H        10.62217719413633   -5.72258226620480   10.34201284588675

