62
CSD_code = IFODEN | q = 0 | S = 0 | Stoichiometry = C31H30Ti | MND = 12
Ti        1.48569088655811    2.72446724392214   13.67043133873006
C         1.08600003462336    3.57844099615931   15.53917326209556
C         2.19756311627642    4.55192010290522   15.23550138819206
C         2.69740952100117    4.33863810352767   14.00503816087522
C        -0.02962107601285    4.12670215789432   16.41892914038981
H         0.10514723887181    5.15760287417256   16.73973538292839
C         0.95456736857614    3.14283743572492   16.98426000239055
H         1.69319575465963    3.54236732619450   17.67888385239818
C         0.47076869537224    1.76713654122789   17.39667372693612
H         0.30051917985427    1.77695492256562   18.47864788674740
H         1.23888166677278    1.01427941657589   17.20129146643457
C        -0.83587815491950    1.39615619323053   16.70376973478778
H        -0.67749504071377    1.33076916253419   15.62062346292934
H        -1.18188547379801    0.42478146157218   17.06488173848557
C        -1.87368751609672    2.47276989875594   16.99224811502102
H        -1.91385976200413    2.65026736454277   18.06953013597881
H        -2.86635452864656    2.14897357832429   16.67107962306413
C        -1.49914884991937    3.76340964502581   16.26473204453385
H        -1.75445415100106    3.65394878892662   15.20970484486412
H        -2.10524025170490    4.58373262689350   16.65679702115938
C         2.60656425487477    5.55590172971634   16.24376469749216
C         1.97716293969290    6.79705615797255   16.31125985599290
H         1.22500871956024    7.04876601719958   15.57604864540131
C         2.32724476573265    7.70690708191568   17.29290744859506
H         1.83406935203771    8.66748302226643   17.33507817511898
C         3.30512358854754    7.38911357226879   18.22068505958205
H         3.57418876723728    8.09883310300028   18.98918847128644
C         3.94096902714073    6.16047948441822   18.15699698687479
H         4.70908336662583    5.91159366521775   18.87518777831210
C         3.59348421403088    5.24773053444579   17.17725009316863
H         4.09628272270883    4.29201209612759   17.11671768583928
C         3.75423582292106    5.03799918267735   13.29397799856307
C         4.12972274917408    4.59246057235947   12.01817922773473
H         3.62223670076179    3.73596890065029   11.59144462498623
C         5.12830848684194    5.21906574930954   11.29987665985221
H         5.39688128387027    4.85189848703570   10.31902151862110
C         5.78735382566469    6.31582926620656   11.83088697748943
H         6.56983942509144    6.80712492147770   11.27162487191766
C         5.43009363989930    6.77493111631979   13.08779598860687
H         5.93657589649404    7.62983910421483   13.51312202381613
C         4.43115725635903    6.15087792736236   13.80979301103290
H         4.17228853486357    6.52790137841426   14.78589737508577
C         3.63800540668450    1.77965246322462   13.80735825270010
H         4.57675074410238    2.31809063008969   13.83676709770709
C         2.88606903402213    1.37610296424111   14.93384066125685
H         3.16361730053572    1.56085331771953   15.96367698128653
C         1.84050740064761    0.53912666225603   14.47891168079199
H         1.17837972728736   -0.05066415509345   15.09883240884606
C         1.96660012633967    0.41124285527944   13.08479696992729
H         1.40051156069662   -0.27029756190132   12.46403882592824
C         3.05897258974207    1.18814663990567   12.66768853430502
H         3.46896386070944    1.21124835457740   11.66664561344309
C        -0.26486206720872    4.09513579398947   13.02593368652435
H        -0.68930351449958    4.89213152939231   13.62302386559988
C        -0.73841689773706    2.76443380597310   12.92506719744121
H        -1.60439824052844    2.34758067904416   13.42489422089673
C        -0.03663905864225    2.13547942685028   11.88247403049160
H        -0.26436592802498    1.16087687476998   11.47188811014888
C         0.89311579105430    3.05012312907162   11.36194463658725
H         1.50627938597522    2.89213580562376   10.48450036318437
C         0.74954782899646    4.26685273421272   12.05755501700271
H         1.22097095195699    5.20691913952106   11.80042434162107

