118
CSD_code = IFOGOZ | q = 0 | S = 0 | Stoichiometry = C53H56Cl2N5PRu | MND = 6
C        12.13107626701423   18.76629284469521    5.64145687109752
H        11.91392019932819   19.57794333979303    4.93467285499392
C        10.80725610958881   18.13347788796385    6.08578578449636
H        10.21008921783861   18.86793720209467    6.62309711986739
H        11.00051058738067   17.29106035868041    6.74754850116101
H        10.22491105211529   17.77915075795585    5.23956350685547
C        12.81267496098883   19.38492558504117    6.86019004338315
H        12.20937458438855   20.21246352668932    7.22690423365939
H        13.79638994362521   19.76691892224116    6.60276508642171
H        12.90732012116258   18.65930100746392    7.66495592977091
C        12.99560541051560   17.75709947765498    4.91797077186519
C        14.05753026352697   17.12623344178855    5.54857371248084
H        14.28488764666824   17.35171858824544    6.57737959843960
C        14.83861471030993   16.20584391588041    4.87455565338856
H        15.66093587162603   15.72536320370209    5.38437579284332
C        14.57706387967355   15.90756450313233    3.55447613973708
H        15.20131808868456   15.19804017052291    3.03502540313531
C        13.52171558283928   16.51119659438964    2.88183240440838
C        12.73452004200074   17.42389290194109    3.58426215768624
C        13.25808363491152   16.16500956697621    1.43750506126170
H        12.49219335785295   16.83184401607700    1.03432952348175
C        12.75320717666761   14.72470685658464    1.31879347327426
H        12.54315658367104   14.49084917178078    0.27764804738788
H        11.83923610220180   14.58381031515315    1.89421830063063
H        13.49908299029009   14.02318009252437    1.68647880069151
C        14.51568848385817   16.38036018773559    0.59479161348720
H        14.26884450498634   16.27399492679901   -0.45917344501676
H        15.29614699501314   15.66521872287918    0.84320823536472
H        14.89594478389174   17.38532746609959    0.76353996290740
C        10.39861037750352   17.33344815402528    2.81257051481599
H        10.24929007266424   16.35419494483763    3.22052600379531
C         9.56021928701506   18.12799089552996    2.11313022704248
H         8.54802334944936   17.97127761368256    1.80320148812492
C        11.55040664242723   19.17615431108812    2.31155614165163
C         9.94071438855007   20.35103899411018    1.01290487862229
C         8.71030632320329   20.64009133339698    0.44513990664198
H         7.86059599480106   19.99728876792794    0.60433004397884
C         8.61083945814362   21.77407652447717   -0.35470971930667
H         7.66388470305119   22.03206481047464   -0.80044982517496
C         9.73552833244285   22.54432319835346   -0.62860574200984
H         9.68177276137339   23.38192519108934   -1.30346440548059
C        10.93473971274770   22.18288347368197   -0.03460132033166
C        13.29995125623368   21.99889027966711    0.14853051471349
C        12.57100979615782   23.59454363340395   -1.28198041000932
H        11.87759766448500   24.24965084091435   -1.76629416890880
C        13.90396030212104   23.45606296157238   -1.43426743667839
H        14.58977488924138   23.97788644872830   -2.07044228318350
C        15.63754577849626   21.89337578748054   -0.69712566252782
C        15.83296178597101   20.88016266842945   -1.64374511181213
C        17.10758482341988   20.34466517309244   -1.77085436965992
H        17.28235115409080   19.55946613073768   -2.48831954743947
C        18.15619711830719   20.79597382878658   -0.99481971072428
H        19.13556618574517   20.35277902183134   -1.09999035635425
C        17.95366579880785   21.82365923816128   -0.09800951936824
H        18.77900356825525   22.18691249386917    0.49409701074681
C        16.69890885648883   22.39735110698239    0.05231103082976
C        16.51180943876476   23.54215331332163    1.01306941389407
H        15.48248717996623   23.89744769277500    0.92122216237543
C        17.43529127826339   24.71549702220615    0.67757323708574
H        17.27946433936465   25.04618364389193   -0.34798917683694
H        18.47961545341137   24.43808875371598    0.79155265909634
H        17.23104173238946   25.55046182455263    1.34527275818114
C        14.73296411908686   20.41143694913008   -2.56676497745944
H        13.76287634622279   20.63662001660928   -2.11706502303265
C        14.83902435047062   21.15462973196059   -3.90304378794864
H        15.81139966566320   20.97433887514882   -4.35792042080812
H        14.71694922630330   22.22803888345044   -3.77097218507044
H        14.06723172878017   20.80352209656116   -4.58464567741156
C        14.77413593861145   18.90158613429438   -2.80139123428387
H        13.84114562268130   18.58144857071548   -3.25929517450834
H        14.87834193950601   18.38335942969450   -1.85296781866201
H        15.59282299974258   18.61745147217441   -3.45883421272264
C        11.17273491595879   21.97338202592135    4.52757797187401
C         9.91207343405017   21.54316339175423    4.12056548949977
H         9.74589484518949   21.26745146489602    3.09198216168721
C         8.85810881759535   21.46387477276276    5.01175367260164
H         7.89109011316345   21.12382082251043    4.66932548793127
C         9.04186614284232   21.82023374684663    6.33643778810041
H         8.22189774960472   21.75772179254098    7.03639940707334
C        10.28680372163247   22.25699329292693    6.75376456572769
H        10.44171667895093   22.54064252055624    7.78500409388175
C        11.34279120222185   22.33172438979354    5.86194497635380
H        12.30498722794421   22.66635926863984    6.21632869689355
C        12.11830968662261   23.73712462738681    2.58230683356231
C        10.81072825266053   24.11627673556030    2.29745116188426
H         9.98065975499079   23.51268294878985    2.63631188536525
C        10.55861602588501   25.28036607656302    1.59078482959654
H         9.53763995360537   25.56287055059087    1.37677779018322
C        11.60406658859563   26.07493917678440    1.15398877290353
H        11.40347573227420   26.97781682511625    0.59613423268875
C        12.91024185177202   25.70954135176008    1.44150565463561
H        13.73180830376999   26.32869239199524    1.11071973234465
C        13.16249858317044   24.54953596272243    2.14680241063281
H        14.17417722999454   24.25403527795623    2.37859522686626
C        13.91862581020360   22.47222822126026    4.41598948194936
C        14.75881844992618   21.42110393903987    4.76920180582346
H        14.62870752523835   20.45592281355330    4.29826364615365
C        16.73678514492117   23.04149824732210    2.43931691625078
H        16.48229497586598   23.80893502065372    3.16882284973524
H        17.77643876248793   22.76224361617223    2.58778268010970
H        16.12319664295457   22.16011416438268    2.61530622754064
C        15.98063308458543   22.88170136540545    6.23137617091171
H        16.78689265021144   23.04683026293429    6.93113299780676
C        15.13433135894271   23.92729785093487    5.89494111385938
H        15.27603667455773   24.90310321360481    6.33786941711050
C        14.10358514913622   23.72728954725622    4.99530139821003
H        13.43919902381944   24.54479214364309    4.74888961749122
C        15.78936182965359   21.63110791380526    5.67027220450193
H        16.44701878040212   20.81415423774190    5.92676551825747
N        11.60107552942053   17.99289736027101    2.93170006548079
N        10.27347491610974   19.26146583766518    1.80490442162411
N        10.99736897843233   21.16069381072095    0.83122637305379
N        12.19626110574049   22.68082739703810   -0.32398317730515
N        14.33065619006221   22.46560412539072   -0.57778341903373
Cl       12.54924315082929   19.10905197544816   -0.37710851216673
Cl       14.83853797744801   19.77246064580690    2.01255724747746
Ru       12.69279926321738   20.61619278274395    1.50178749384008
P        12.53745932027253   22.09780630378434    3.28545476598688

