66
CSD_code = IFOLUL | q = 0 | S = 0 | Stoichiometry = C18H44IrP3 | MND = 6
Ir        3.79708047148054    1.73303086944648    0.48275022893032
P         4.93030287043906    2.63288435354992    2.38659725561665
P         4.30009370804746   -0.51435882818866    1.12584708528271
P         1.60990820307594    2.04741987923903    1.40583896783383
C         4.20784836765870    3.51258692283701   -0.60491171681122
H         4.31091417214822    4.33750969455968    0.10451402486444
C         5.34215045464058    2.63259348033843   -0.70145248299141
H         6.19349301314311    2.90054803454093   -0.06498884122220
C         5.85435430552725    2.08006414640508   -2.01477430792581
H         5.03454593258213    1.82590665508470   -2.68225681352149
H         6.40510239781188    1.15666505175586   -1.80915227452117
C         6.81303836975498    3.03134336491405   -2.74570646463744
H         7.57269631269725    3.39109087238228   -2.04544560432256
H         7.33238790650238    2.45495845307334   -3.51814235734166
C         6.15160212607022    4.23167880205283   -3.42633679600824
H         5.33643840094391    3.88091647512963   -4.06118751559810
H         6.89779004624604    4.68346552943472   -4.08647512117942
C         5.63358317587637    5.30440120239878   -2.45873427201899
H         6.08307570183260    5.14765633709452   -1.47824042517697
H         5.95517706226405    6.29051911190575   -2.80633508195304
C         4.11219021173107    5.34233053929637   -2.31218366854838
H         3.66531766503195    5.61841162958215   -3.27176230192546
H         3.86092789942129    6.13084074011141   -1.59590247659384
C         3.49415075279757    4.01997638197522   -1.83891733125951
H         2.43612418195714    4.19920508573442   -1.62330259167912
H         3.54551778234036    3.29270744227106   -2.64425791240302
C         2.88897219046500    0.86401750729745   -1.23207739972006
H         2.10777255240989    0.15328361829234   -0.94771500707824
H         3.59705024723517    0.30469751107199   -1.84952910011812
H         2.40519120158693    1.58569425635220   -1.89040607567360
C         4.27855817572413    2.40615800795174    4.10343142363142
H         5.00632099504946    2.73768494886026    4.84389611512908
H         4.04499417500463    1.35842501281453    4.27380135651355
H         3.36459177707039    2.98538788689861    4.21908487537907
C         6.65264271657674    2.03587275844563    2.69653653364743
H         7.10159750738129    2.56028093625122    3.54003299303819
H         7.25689800214974    2.20323120413545    1.80760883801048
H         6.63853437046495    0.96834587550583    2.90223936512244
C         5.29327223239371    4.44068790199309    2.52319941520720
H         4.36678784931243    5.00867404252616    2.46090980043529
H         5.94169521877115    4.74285372169492    1.70325601905122
H         5.78709830054841    4.66156935173506    3.46940832287865
C         5.93087095214484   -1.13515029374357    0.53094986324474
H         6.72778068568367   -0.50444194843796    0.91696626428185
H         5.93492825930186   -1.06115551184901   -0.55428190038475
H         6.10263193460926   -2.16913337863094    0.82889270452308
C         3.26685172286103   -1.89921163801131    0.48091923206954
H         3.64784375176653   -2.85885086371400    0.82903859193572
H         3.27966012060501   -1.87643016165187   -0.60481947925150
H         2.24039065664698   -1.77231694289806    0.81907845042648
C         4.39035881020546   -1.12369611090968    2.87548795946020
H         4.67276225446842   -2.17551795415006    2.90499313087979
H         3.41273201393430   -1.00373530947206    3.33967590651492
H         5.11702964482105   -0.54774557688936    3.44276424031413
C         0.92343728176907    1.15892218532649    2.88086159553310
H        -0.07248975140276    1.52129674127886    3.13302716439926
H         1.58229419846652    1.29169868007297    3.73533324010981
H         0.87132044172718    0.09634294724538    2.64846987802211
C         1.27981431315135    3.78261436179558    1.93627827667333
H         1.45045878125380    4.43135182461368    1.07960709728878
H         1.97295584622379    4.06795205966796    2.72402938776837
H         0.25714533144516    3.90596393645340    2.29144460857793
C         0.14520288288757    1.85090937960206    0.30845223871622
H        -0.76144559207235    2.20090237411085    0.80126275707350
H         0.03061282538147    0.80387713075699    0.03878793178596
H         0.31496362994911    2.42203730068307   -0.60057782030719

