69
CSD_code = IFOMOH | q = 0 | S = 0 | Stoichiometry = C30H28N4O6Pd | MND = 4
C         8.02982537552894    5.31711785491364   14.79544443371024
C         7.11429931345622    6.34120425977497    8.84511714588563
C         4.67178841570164    6.13440185994052    8.41909518268351
C         5.49186070042991    7.91309557399796    9.86199897438818
C         9.06847633099479    6.18984191619647    7.43568549575933
H         9.57438004871366    6.35262071700798    6.49570354857582
C         9.04092560278627    5.40799308643814    9.70537002278433
C         9.69051563357868    4.86006848402479   10.84635627290634
C         5.72909492645258    6.80622590415648    9.04146285785271
C         6.62813494459341    8.58790129951963   10.57437660895416
H         7.44496614345172    8.81797993678255    9.88984722059894
H         7.00815686925142    7.92564058571969   11.36023910968070
H         6.28829940428659    9.50768501395463   11.04168344893691
C        11.12711109478456    5.21039301067071    8.46210397169141
H        11.66232160183070    5.34546532879335    7.53432384240137
C         3.38258787905511    6.59788518212326    8.61736660310236
H         2.55706218568188    6.06689106308101    8.16737554269440
C         9.76059130235577    5.60239773958642    8.51023285119236
C         7.29662952516550    5.19825524073697   15.96506502069501
H         6.76236138250811    6.06197634422199   16.33212333794632
C        11.64473188561061    4.02983939577904   11.96221428485300
H        12.68803000034498    3.75170829892370   11.96626097084209
C        11.05484721687077    4.51694416858816   10.78132589072119
C         3.12295667226474    7.70148616192586    9.41937092753985
C         7.76216496713517    6.56378599395913    7.61438177020798
H         7.20707877531572    7.04681477881150    6.82498754221894
C         4.18820083749701    8.35187807195956   10.02697381885892
H         3.99609974136005    9.19694438469099   10.67120505220862
C        11.74773511207620    4.69074966109345    9.55195596852821
H        12.78762844215212    4.40371063647855    9.50980086028282
C         8.05811926478521    6.64770902865904   14.10049906364193
H         8.96323875828342    6.79257029297954   13.51012254671821
H         7.99130270864597    7.44882999753623   14.83381424301327
H         7.17154267392640    6.72194781744668   13.45317132348174
C         8.63995650791623    2.97067884146374   14.99274114078794
C        10.88065889612349    3.93272704671469   13.09408175110502
H        11.30782402868629    3.59301488975374   14.02374766702484
C         9.51516369121578    4.29015960246761   13.07860124836148
C         8.71971748683947    4.19513559350240   14.31037795243866
C         4.93066506959476    4.86968801387479    7.65818827381316
H         4.01078940461097    4.49216461499207    7.22055790043860
H         5.31780599743124    4.11744857248302    8.34872419624826
H         5.66403107725746    5.01491777172586    6.86587745923617
C         9.27701088037743    1.71411632529848   14.47203753589219
H         8.61492691968785    0.87244733813305   14.66288334608035
H        10.22156911669054    1.51963107752817   14.98164482888601
H         9.46095323788733    1.76093810010586   13.40145534377138
C         6.36120431236744    3.87189740797176   17.87958444749979
H         6.17434725350684    4.84451387120540   18.32775177155053
H         6.83578421672486    3.22366344887015   18.61349475870940
H         5.40157745053791    3.42943540346771   17.61251260685126
C         7.20538771793422    3.99738115127616   16.65145064479066
C         7.88367390407113    2.89579526656451   16.14983081008265
H         7.79808585678569    1.94508747050298   16.65498048973238
C         1.71643092592393    8.12635357403306    9.69055392614979
H         1.07240553153129    7.92342740164209    8.83827355245944
H         1.66412428352604    9.18337222323698    9.93953532162253
H         1.34599361620395    7.55430019973975   10.54169257017356
N         8.94364778391587    4.73373495789423   11.96365852924576
N         7.74298391734555    5.75651521689723    9.85554944957765
N         4.39821770119341    5.67380681680913   11.78550712597336
N         6.52346193814399    2.53797177306498   12.73033559903310
O         5.01291178183231    4.90155975650793   10.98746643825874
O         5.08034616849529    6.40398722685961   12.49802497407995
O         3.19715813712849    5.68394606367348   11.78484119427347
O         6.26525554153279    3.73926415585847   13.04694964956728
O         6.15758500693389    1.64767405601093   13.44992517621843
O         7.17300675909673    2.34716815976643   11.70122354776810
Pd        7.00517214407456    4.94011751961997   11.51948301674179

