66
CSD_code = IFOMAS | q = 0 | S = 0 | Stoichiometry = C17H43ClIrP3Si | MND = 6
Ir        1.42830751707401   15.88408984368835    2.48306031302745
Cl       -1.08619561071282   13.17674240756022    3.31736275044267
P         0.12094394040658   16.37093259839075    4.46643707104716
P         3.08452716483518   17.66956144206375    2.64728333824483
P         2.83445925009543   14.33173681329368    3.62319272224210
Si       -0.08366721943553   14.20252907001635    1.71798839349417
C         3.24449920744475   15.97786808846418   -2.86683767919608
H         2.61285512769873   16.79005726240207   -3.17619941928668
H         3.94290598258605   15.62539343685935   -3.60873344774487
C         3.19437463651429   15.43177607784620   -1.65113983588243
C         2.24256121364148   15.87739090940941   -0.61550859486858
C         2.40046666668540   15.52831772827036    0.67003611320158
H         3.26617442456195   14.89194799349432    0.84538118573614
C         4.13977328437868   14.30454280917903   -1.32588696434922
H         4.64677805071517   13.96872895458450   -2.22759170539161
H         3.59915404368581   13.46275360003467   -0.89700733560052
H         4.90139178326481   14.62266269832348   -0.61331839598250
C         1.10480617484629   16.72834179909166   -1.11331616345574
H         0.39448693578676   16.90043078469208   -0.31281905990533
H         0.59762890834996   16.22850211046340   -1.93727775754927
H         1.46303871524895   17.69201350192470   -1.47597053750776
C         0.63843538131981   12.67734071053285    0.77055164993545
H        -0.10368562203314   11.89154657706115    0.66382036526943
H         1.50443991721980   12.25037219772358    1.26768695877118
H         0.94874685876568   12.98632031233582   -0.22137517757441
C        -1.62866668161362   14.64405410562282    0.64345086955555
H        -1.31349316357413   14.92831908621436   -0.35349580361167
H        -2.19289928414899   15.47187470511783    1.05962090152317
H        -2.29864957743201   13.79321624194684    0.55606787130478
C        -0.11708957893015   15.29975845872113    5.94544100272501
H        -0.78640594721157   15.78951891117373    6.65241718509963
H         0.83169870081309   15.09366742843908    6.43749465106001
H        -0.56560235459250   14.36469780000153    5.61572346714161
C        -1.64853707295418   16.65013360330010    4.06973541630075
H        -2.07765399909614   15.70824362553929    3.73770289064340
H        -1.72399398937126   17.37470898169207    3.26179679485134
H        -2.18878610375110   17.01077085672886    4.94498276871025
C         0.45905336499442   17.96259690805537    5.33292851020725
H         0.47739003888031   18.76291728580771    4.59558330214867
H         1.42397815784520   17.91688958718998    5.83390285966347
H        -0.31670349376743   18.16872503902655    6.07024075556794
C         3.61602939740581   18.68923289917826    4.10275073002474
H         4.46495339664459   19.31440454083608    3.82766476001562
H         3.90061239172413   18.05670573404090    4.94083187334225
H         2.79481358294796   19.33034199979219    4.41346117682915
C         2.64798982783261   19.04804267212120    1.51862676029074
H         3.42690125097608   19.81042603208185    1.50802280314138
H         1.70523946827024   19.48941924374845    1.83557539562474
H         2.51470390029444   18.63387294215786    0.52260161044910
C         4.75703994903899   17.30031689482070    1.96780609237026
H         4.63773656545843   16.85865531133164    0.98117454908502
H         5.28655112420816   16.60008460719944    2.61136275235857
H         5.33993189050294   18.21720832168247    1.88459105193848
C         3.71623988634172   15.03903240702372    5.08075141658866
H         3.00352271753889   15.55626743371139    5.72112036021111
H         4.45737957924929   15.75937719607001    4.73723439429329
H         4.21564566146437   14.25870158739550    5.65522840302101
C         4.27456884554253   13.51245339838235    2.81468330420614
H         4.95473487566747   14.25199241890224    2.39693082564846
H         3.91486894054039   12.87628655963015    2.00782840767179
H         4.81177590146715   12.90065723698916    3.53976281149275
C         2.11866421407995   12.83441230728357    4.40665702200883
H         2.87235597841633   12.30868542019009    4.99394214409149
H         1.73919715484250   12.17663624808119    3.62795748417708
H         1.28017440272175   13.10565361720542    5.04085828540801
H         0.52062334779278   16.91564061789652    1.79496335568153

