69
CSD_code = IFOMIA | q = 0 | S = 0 | Stoichiometry = C18H46IrP3Si | MND = 6
Ir        6.52192319965412    3.83408588739815    5.99642328493099
P         6.74772361610597    4.11921262725689    8.36907515958352
P         6.22631265333881    6.25876743685314    5.66103329701125
P         8.81886970304879    3.95837609406705    5.49069216824035
Si        6.24071312600962    1.43004717099832    6.27268379072997
C         1.92093302134923    0.09934369836436    9.25832759450186
H         1.24718960364722    0.25461815399024    8.43541525654600
H         1.47894727796356   -0.30712230903508   10.15376691535007
C         3.22662233092266    0.35737788790222    9.18574238280560
C         3.85744060403050    0.90519334070491    7.97300823006876
C         5.18144454193232    0.85204433410497    7.77489711098948
H         5.76518570272264    0.37328087960612    8.55193334188705
C         4.10160030969505    0.07138364825211   10.37664869494618
H         4.73218017301522    0.92803322245990   10.60926524692019
H         4.74776580882010   -0.78308874316922   10.17846509403110
H         3.49192694759801   -0.16084894476805   11.24679168805099
C         2.93736190539665    1.51499270412367    6.95648472587806
H         2.18351954096076    2.13306327835927    7.44142134923945
H         2.42943506055994    0.73462664788774    6.39183679613694
H         3.50621614733793    2.12610315250540    6.26574701802921
C         5.47188367458550    0.41485712304124    4.81114797005024
H         6.18302995376447    0.30013205213322    4.00057193468606
H         4.58798314263434    0.88967206833976    4.40551104824191
H         5.19232422541979   -0.57783294771858    5.14930319827961
C         7.79327751429258    0.30864065313035    6.63573544905237
H         7.46441506416206   -0.65350651492601    7.01626561791030
H         8.47080424464238    0.73480208926791    7.36858155392772
H         8.35860495912376    0.11566726270143    5.73157476731307
C         6.22094631551682    3.49519663536207    3.89619639711940
H         6.85330082492537    2.69454745966531    3.50575910717493
H         6.46747267697388    4.39071054113452    3.32285438211909
H         5.19765087418322    3.22850817749990    3.63064734616185
C         7.72244362944740    2.88796589110956    9.33114699641845
H         8.75576298757665    2.87882061815898    8.98966175325532
H         7.29383331180210    1.90558985264248    9.15800327444849
H         7.69749993470261    3.11955768553528   10.39586970534920
C         5.16402409551361    3.98607059263762    9.29026054410147
H         4.70481870123074    3.03651923424340    9.02293662582423
H         4.49354948994043    4.78507683645280    8.98214675243156
H         5.32690832771904    4.03827373071506   10.36686706906580
C         7.40114745683463    5.64288795225839    9.19847178007828
H         7.34175773250169    5.53182406500558   10.28119750526941
H         6.81211159421624    6.50836449240711    8.90236716115287
H         8.43835211190765    5.81167236312914    8.91754266520501
C         4.76926009013876    6.88201362875260    6.60015190935749
H         4.92620984602992    6.75497210151928    7.66859318809750
H         3.90593129873271    6.28665080941793    6.30994168012105
H         4.58184027106797    7.93399468547458    6.38416064786590
C         7.39925042860448    7.64908895493501    6.03327835064248
H         6.91438895152366    8.60983647780038    5.86273398278477
H         8.27568391738233    7.57892896486641    5.39124575830131
H         7.72707506124916    7.59809668858685    7.06913606118490
C         5.68092450880171    6.83749289902782    3.99940606952083
H         4.85721363196743    6.20674408641767    3.67228359030615
H         6.49134912101629    6.75309119474273    3.27787326698740
H         5.35243367345619    7.87574022270840    4.04771825726324
C         9.95567779654023    4.85109302375238    6.63918616244409
H         9.97510584471097    4.33775563606390    7.59905944841662
H         9.59617308377646    5.86662872387601    6.79296445271767
H        10.96794761842169    4.88749574652376    6.23618666551648
C         9.22056454059302    4.88848474402757    3.95112066204276
H        10.29425529623970    5.06139624625687    3.87239105402984
H         8.69957967893683    5.84351621103808    3.94430502564347
H         8.88542720322198    4.30736743738199    3.09490327186113
C         9.88715640179631    2.50043255303919    5.15562362448097
H        10.86360982572687    2.81315009661688    4.78446325847257
H         9.39820207163584    1.87429665948460    4.41264549586118
H        10.01273102346139    1.92029600592658    6.06589963507946
H         4.98769469724468    3.84332811998017    6.14954873048224

