34
CSD_code = IFONIB | q = 0 | S = 0 | Stoichiometry = C12H20ClIr | MND = 9
Ir        2.85410159379014    4.15360601374494   -0.67362505056817
Cl        0.65129920761214    4.21452457297668   -1.62715472601224
C         3.64456264404422    3.91122312220657   -2.67487400198048
H         2.96296993687547    3.25793825357437   -3.20913672364371
H         3.95923326417456    4.75295332660671   -3.28221925719193
C         4.62044655454173    3.36965447283420   -1.79638784969389
C         4.19177462948515    2.37317993402930   -0.86642928707235
C         2.82196102691474    1.99879930657905   -0.89034097623859
H         2.49028197343525    1.33862561488791   -0.09630811273911
H         2.32783645895859    1.78147929744315   -1.83130352241007
C         6.03637945907552    3.86484252742128   -1.82636141134878
H         6.64800648856608    3.13824808213882   -2.36386332773139
H         6.46888310309928    3.98518011679289   -0.83554288360589
H         6.09931231926430    4.81377998570329   -2.35329648212359
C         5.13465787498761    1.76913488082141    0.13235220977494
H         5.75301249447871    1.02733761439799   -0.37575401486634
H         4.58383272903937    1.26547240077291    0.92281428362453
H         5.80459633564900    2.49796308931804    0.58347533698471
C         2.77615605212752    6.30984573723919   -0.50475797757289
H         3.15914821546449    6.96766019309354   -1.27744803402523
H         1.76428303396107    6.57202131007616   -0.21437384402845
C         3.71325720379334    5.87159208571816    0.46923227754583
C         3.28137514841441    4.87603633884213    1.39822400663605
C         1.94822404716238    4.39987993732037    1.27651706206370
H         1.12460097620290    5.09627146684698    1.16063597963639
H         1.68067970758803    3.55683051493354    1.90429859360818
C         5.11273852679552    6.41257996187306    0.48154446503965
H         5.19291745136149    7.15424046080705    1.27801522137136
H         5.34132160813047    6.90388586117881   -0.46107225932470
H         5.86537823406858    5.64985759352429    0.66921005470734
C         4.20006595775052    4.31339915879357    2.44244148635722
H         4.23897883013022    5.00875199229957    3.28274800002521
H         5.21870305621630    4.17394553345001    2.08729276715262
H         3.82412385684032    3.36175924175466    2.81044799765030

