99
CSD_code = IFOQID | q = 0 | S = 0 | Stoichiometry = C43H48ClNOOsP2Si2 | MND = 6
Os        5.37960079465346    3.84445119850045   10.68400294088430
Cl        7.57926895474962    3.76104055622780    9.68702371154771
P         4.85373036401287    2.28651914652748    8.89624177695734
P         6.16995477574843    2.33436992862166   12.42190724254903
Si        4.94501328138538    5.74766160231889    9.26913418804889
Si        6.01867602347202    5.76621640609497   11.98516727911334
N         5.93014599250576    6.97008703310774   10.44786831187277
O         2.60191368874407    3.68679229588512   11.87131535005640
C         3.67130532237729    3.76459546092042   11.41824277915199
C         5.63989221867684    6.24099174883252    7.53861226198013
H         5.01720664713228    5.80889757323650    6.76248413849611
H         6.64903005179109    5.87578839047493    7.38382811764406
H         5.63601674846139    7.31832547947250    7.39268991303431
C         3.18806956952433    6.54937327967905    9.17377313041936
H         2.60905337645912    6.03613017141076    8.41312712030275
H         3.22908303066881    7.59461414578369    8.88899562423340
H         2.64248824523694    6.46902121713903   10.10763565669714
C         7.26522912870312    7.22394814043163    9.92697421998054
H         7.85462986019709    7.79028495051545   10.64782653763988
H         7.21543771040601    7.79807365663800    9.00236393161614
H         7.76262058395713    6.27967203246175    9.72585523074575
C         5.28642633155829    8.24557614977278   10.69134700254073
H         5.85844578376513    8.83165321035205   11.41333217415692
H         4.28863996967974    8.08403987449512   11.08246362939871
H         5.21463638396312    8.82030267118644    9.76582813705117
C         4.78409435601364    6.57578673232800   13.22758931779360
H         4.83527605850493    6.03441195051224   14.16550218282226
H         3.75757180375620    6.52206405047379   12.88292453815775
H         5.02333828248088    7.61244262721181   13.43779501239177
C         7.69727673864778    6.25836269420149   12.81039673593155
H         7.79091810996967    5.73283461168155   13.75616515544145
H         7.73535702623428    7.32274026644925   13.02911104606233
H         8.56069637873138    6.00928006090321   12.20237006520202
C         3.11365426195101    1.71369808453024    8.87176606375586
C         2.73210958690811    0.37789668286954    8.82465009171422
H         3.47943156448240   -0.40149275369490    8.77324080688295
C         1.39111884907153    0.03545641447798    8.85702945792783
H         1.10574458668504   -1.00641213428778    8.81899922930392
C         0.41914342310748    1.01703104652021    8.94099809168780
H        -0.62553704881152    0.74418634012584    8.96785940786372
C         0.79229287990459    2.35012924357484    9.00303683796509
H         0.03974850738938    3.12084021530575    9.08227335803890
C         2.12982801427087    2.69532021785699    8.97598060232336
H         2.43033407643142    3.73266166001093    9.04978620806970
C         5.76964453720352    0.73058116405592    8.58859289258977
C         6.71719940950010    0.29649277100270    9.50021356436571
H         6.90116252372155    0.88528738201680   10.38817285223727
C         7.44521524089145   -0.85691898147541    9.26836448865123
H         8.19071931425152   -1.17352430101479    9.98314252080660
C         7.22183588602913   -1.58955378207215    8.11659943535281
H         7.78743187962168   -2.49045770798327    7.92795968726270
C         6.27669886077264   -1.16088691647469    7.19559667500833
H         6.10664952837892   -1.72958143470680    6.29253348641180
C         5.55706016735736   -0.00433270950475    7.42231405407476
H         4.83094304469346    0.33578737938973    6.69585430422936
C         5.01440147415147    2.92810783818664    7.18491417495193
C         3.93581746861590    3.28821546689611    6.38605465341229
H         2.92627966714323    3.21216923560533    6.76237529667374
C         4.14615743331784    3.73458597474393    5.09251350368680
H         3.29925716173047    4.00449992004629    4.47748514557856
C         5.43059595712133    3.83193531031844    4.58524864555863
H         5.58879346653783    4.17866873240155    3.57445449788760
C         6.51007731120922    3.48177820184124    5.37981464447648
H         7.51529801216840    3.55747662885560    4.99147780043659
C         6.30488022162927    3.03113228308630    6.66937780691082
H         7.14900830211104    2.76408561037666    7.28880843551142
C         7.89632615112481    1.73199142543198   12.45638853354628
C         8.24338198757658    0.38641156280822   12.52658833449715
H         7.47640096362098   -0.37320778751090   12.59104768414176
C         9.57530392645088    0.01230340268168   12.50448169386845
H         9.83634469455477   -1.03502283795298   12.56573867500389
C        10.57043355582266    0.96925917501680   12.39796166674087
H        11.60820325446697    0.67006458848572   12.37443077462583
C        10.23023287002877    2.30892656256653   12.31054739215664
H        11.00162578411323    3.05894925365186   12.21340255210468
C         8.90158120896770    2.68916643631416   12.33622513372072
H         8.62981348578682    3.73006879481093   12.24630409574100
C         5.22481561168927    0.81605729717616   12.82389206338312
C         5.44504819121117    0.12839196168454   14.01602265589452
H         6.19820929423363    0.48029998219945   14.70825147526557
C         4.69982905531601   -0.99609595417761   14.31286008442815
H         4.87580666082068   -1.52745215942935   15.23712869480919
C         3.72374516885223   -1.44092641111612   13.43317873832700
H         3.14101983007699   -2.31797833234992   13.67401031362239
C         3.49297872422112   -0.75514325207583   12.25378791530895
H         2.72621771944779   -1.08582440218745   11.56848136625126
C         4.24263893993452    0.36839444651146   11.95446324506719
H         4.05750936723371    0.91878195317697   11.04098346057771
C         6.04388831373924    3.07109782498586   14.10078618539933
C         4.75543162546144    3.31225327516999   14.57245745059298
H         3.90836126338172    3.06935930400200   13.94757887934861
C         4.55440214782145    3.85015440463483   15.82829501984324
H         3.54955323706825    4.02775185683670   16.18245611924703
C         5.64018674284227    4.16273952616132   16.63135616259789
H         5.48613594921536    4.58637581361984   17.61279777779096
C         6.92273995645511    3.92401054530155   16.17103242301237
H         7.77353145895303    4.15817978220226   16.79497789281261
C         7.12665489083532    3.37757216971483   14.91467353736347
H         8.13500880707362    3.18197739488008   14.57942882128569

