99
CSD_code = IFOQUP | q = 0 | S = 0 | Stoichiometry = C43H49NOP2RuSi2 | MND = 6
Ru        9.20375895548995   10.79220024203665   10.08397664742715
H         9.24260389270097   11.56082922261427    8.71912386212714
P        10.19989304176508    9.00178473749800    8.97593634652615
P         6.97790994376370   10.22838503941796    9.67038591866094
Si       11.24398335502074   11.99618146352718   10.50168563017579
Si        8.56005313274859   12.87017218152337   11.10044038248197
O         9.45880154100709    9.49669499335504   12.78460495413868
N        10.28790732372576   13.68933882856392   10.77403713803085
C         9.31677011159281    9.97076414423916   11.73655997041752
C        12.66800331912946   12.57741601486665    9.32654996194402
H        13.44506347472539   11.82161916475151    9.30946521696381
H        13.12573262344498   13.50265161780194    9.66671668969434
H        12.33332883059375   12.71750005729749    8.30440532604092
C        12.23372934002595   11.82593183136614   12.15532408458629
H        12.85766219971994   10.94014099587026   12.09583744789189
H        11.58370870778317   11.70071845716387   13.01549347364715
H        12.89074224211121   12.66983621571198   12.34148423346051
C        10.24536454436021   14.45452083086131    9.54135594865616
H         9.57936019465786   15.31141223484834    9.64473272654708
H         9.88131341963475   13.81854893137851    8.73955047866836
H        11.23765904175942   14.81898308208491    9.27698159465354
C        10.80468697639665   14.54744470672580   11.81982958761226
H        10.16646825075785   15.42472872884249   11.94789692147326
H        11.81105150004202   14.89082984061965   11.57031290100640
H        10.84471137500747   14.00405625244165   12.75643741650963
C         8.37493264550682   13.09793445985913   13.01326279033384
H         7.38095566133307   12.77789078016261   13.30723843392394
H         8.48423579084799   14.13185239278499   13.32524111935926
H         9.08529189826904   12.49608352003840   13.57136717585128
C         7.29820923462970   14.21705708177151   10.50816447633072
H         6.30284691133944   13.91474494655577   10.81949863404081
H         7.27454062287688   14.33578504842690    9.43028575656650
H         7.49657516704572   15.18842259295469   10.95354161105592
C         9.68664595075763    8.55235319168949    7.26447347007128
C         9.32787707219918    9.59336085752743    6.41141493621886
H         9.36975268668936   10.60922054467647    6.77921901721773
C         8.90141977720326    9.33986364478841    5.12134406460701
H         8.61844401574740   10.16029245918257    4.47746473478161
C         8.82790168657535    8.03573261460128    4.66097320270161
H         8.48786544947642    7.83148896885246    3.65616621565408
C         9.18615119167976    6.99371533397111    5.49942000629714
H         9.12846561816316    5.97342774238392    5.14706234859315
C         9.61169561627291    7.24529990457810    6.79228120413942
H         9.86394599144872    6.41577385150213    7.43571073535597
C        10.26938135131048    7.33683032027804    9.74855092458014
C         9.32568521488363    6.98447654891071   10.70290204333211
H         8.57095808943794    7.70127339296806   10.99278027517032
C         9.34203648940023    5.73145472855444   11.28930786424204
H         8.59814410782808    5.47737531030452   12.03017110157859
C        10.31084610789233    4.81253122423312   10.92834902545576
H        10.33022036156735    3.83396012540285   11.38558022481655
C        11.26298835718922    5.15453876727881    9.98058505426378
H        12.02470303466798    4.44166806529814    9.69802293119406
C        11.24483328395420    6.40514458838538    9.39295592248525
H        11.99561301849156    6.66316832646018    8.65832837771296
C        11.99938248309369    9.20265552950573    8.70168559400195
C        12.56220077964307    9.52967616042890    7.47594274617602
H        11.93137065602402    9.66094654600944    6.60833120708205
C        13.93432034607570    9.68055427160044    7.36023127783424
H        14.36649239657302    9.93197348838228    6.40222490326801
C        14.75248530712797    9.50575362415966    8.46243885213637
H        15.82263278374213    9.61764762178040    8.36671427090174
C        14.19417935687657    9.19097892567038    9.69306920174916
H        14.83002455860277    9.05838317609613   10.55671485969513
C        12.82687279179419    9.04830608437667    9.81224227876377
H        12.38060681736551    8.80713532737957   10.76885832895015
C         5.75432439233999   10.91971595083211   10.84997517062883
C         4.60633070417581   11.59896802818044   10.46029195537301
H         4.39595794903944   11.75652736988562    9.41284721800484
C         3.72673241550465   12.08819850622693   11.41137374247634
H         2.84158134578901   12.62119485041343   11.09495402374005
C         3.97296308595912   11.89561837164739   12.75938041470354
H         3.28062511263920   12.27284042015121   13.49757125713546
C         5.11733929460362   11.22349553263250   13.15744427293359
H         5.31951122733752   11.07327377085752   14.20846391010717
C         6.00565474578795   10.75202746183754   12.20969787976107
H         6.91653816905366   10.25932001364002   12.52197884439808
C         6.49506539972699    8.45673646601034    9.73290144512937
C         6.84397074196707    7.67721299083879    8.63102483488772
H         7.27339335377747    8.15940284526505    7.76345830459526
C         6.62994783116286    6.31373480131841    8.63334279640716
H         6.90784644283380    5.72593361223782    7.77038856619635
C         6.06100696937482    5.70509273772067    9.74090876639422
H         5.89765534097323    4.63741650194886    9.74952173357049
C         5.69763368149268    6.47263172175687   10.83368711545744
H         5.24316208280851    6.00479286974757   11.69556281532022
C         5.91340029339546    7.84074279901832   10.83497617267045
H         5.62329421946734    8.42449917919910   11.69656675541588
C         6.15663289860879   10.68010836628905    8.09063077084378
C         6.60024700855225   11.80152557892950    7.40058866139782
H         7.43191611422558   12.36366369203289    7.80142326798775
C         5.99651927635374   12.18958836281853    6.21813706216909
H         6.35524571971776   13.06201739031795    5.69043167213874
C         4.93477490675009   11.46038381540269    5.71083149109242
H         4.46609765465218   11.75463000443943    4.78295636861987
C         4.46915413559503   10.35468002411965    6.40377054154165
H         3.63068010261045    9.79049582776050    6.02083762431620
C         5.06822562929542    9.96897868439187    7.58876762248403
H         4.68347373485030    9.11382954662663    8.12656486375777

