75
CSD_code = IFORUT | q = 1 | S = 0 | Stoichiometry = C39H29IrN5S(1+) | MND = 6
Ir        5.67796198247433    0.97213638552554   16.73816332837030
S         3.46300627544196    4.95670817252979   15.38520293917605
N         4.54317288395552    2.83224926485459   16.27224777183400
N         4.97177033772131    1.71405157931648   18.68423114112773
N         3.55407418378287    3.00651706001370   19.81784499992576
N         4.07239576027345   -0.25817742190286   16.78968358998313
N         7.35357779603913    2.09501505802236   16.64075380028390
C         4.36221515650221    3.50567007808545   15.18658560833067
H         4.73368771247829    3.19100853327249   14.23049593870622
C         3.33509617039952    4.60874484052038   17.05855425787338
H         2.80965576094739    5.28421725562865   17.69833959358425
C         3.96630339030539    3.43195121686668   17.36179476371665
C         4.14237556415909    2.74277043270465   18.61799940937481
C         4.94174661338186    1.26770878452375   19.97312927968472
C         5.63042669032272    0.22288684105474   20.58508625895757
H         6.32226260407029   -0.38021936752423   20.02037650448325
C         5.38532933486846    0.00697430546367   21.92196425474248
H         5.89816387249533   -0.79243278947597   22.43311329558856
C         4.48591766560929    0.80145324701580   22.64204652048777
H         4.32653722276022    0.59345877730102   23.68843390734772
C         3.80124854093743    1.84324387822742   22.05333846488155
H         3.11444538694845    2.44775154720867   22.62499316419349
C         4.04005267793116    2.07242183133574   20.70462064006970
C         2.50656168086823    3.95597040315995   20.09220990471738
H         2.88216034269507    4.97559413637789   19.95025367335607
H         2.24122127383059    3.85003809631404   21.14846372675785
C         1.27635678296089    3.71923379210442   19.24464223205538
C         0.45496718776943    4.78747318804357   18.90612971322995
H         0.70094253477349    5.78260794407055   19.24950832791478
C        -0.68272752520692    4.58355246791843   18.14604235437224
H        -1.31456213319955    5.42047451894134   17.89225633261628
C        -1.00942110589469    3.30870142990316   17.71529115424642
H        -1.89688701364158    3.14860931646849   17.12318819469099
C        -0.19913963911118    2.23981018763221   18.05634112420806
H        -0.45732706720906    1.24084944588997   17.73985907979678
C         0.93807440707079    2.44162430738544   18.81889117381004
H         1.55455211520804    1.59482385881596   19.08837953369470
C         2.83418588018320    0.08258379372904   16.43417916037600
H         2.69488881579813    1.08220951000310   16.04454258453106
C         1.75604326768547   -0.77359069248693   16.53056424158069
H         0.77828284350842   -0.44904647495669   16.21440628945892
C         1.96675377052816   -2.05338844804884   17.02860612085187
H         1.14831381729634   -2.75032235218158   17.11925950944226
C         3.24587064127487   -2.41690402887435   17.39643286290886
H         3.43881693056836   -3.40528458763524   17.77851217873379
C         4.29661467511743   -1.50748750809538   17.26474240890358
C         5.68644429623944   -1.78366980256914   17.59021652605007
C         6.58526010502828   -0.72313161953125   17.34342942365609
C         7.93110740119187   -0.93359042335891   17.61708231150211
H         8.65420049367929   -0.15217609829946   17.43029107949774
C         8.37717192176069   -2.14234744690774   18.12888198727892
H         9.42813714929524   -2.28193796148949   18.33363406246186
C         7.48297746825915   -3.17223364213022   18.37892438989524
H         7.83561000789194   -4.10988199646182   18.77987826416765
C         6.14161493030038   -2.99726818520408   18.10818977059146
H         5.45249575778678   -3.80454751976293   18.30248113114838
C         7.85483452311003    2.80095346279565   17.65349415648353
H         7.33578856747077    2.72415453135600   18.59931664191172
C         8.98377765912314    3.58732376654133   17.53885181021275
H         9.35065533751173    4.13667696478712   18.39028116102658
C         9.63095456242971    3.64426731802080   16.31068924038818
H        10.51677406563819    4.24663680910999   16.18345974511973
C         9.12450725935506    2.90732075872073   15.25937130415737
H         9.61440993460220    2.92441944498933   14.30014416189929
C         7.98070165407237    2.12845247200586   15.44029403126484
C         7.37028070920874    1.28469406715142   14.42374771250948
C         6.25619520700932    0.53333048165901   14.85674291485890
C         5.64906286860206   -0.31311477633216   13.93839077753165
H         4.80295025274190   -0.91796388642964   14.23347098843511
C         6.11430117331914   -0.41207241977435   12.63612643598299
H         5.62698776421859   -1.08058346254451   11.94206402689504
C         7.20253113872358    0.33955520011373   12.22066996196323
H         7.55999125853191    0.26005011724541   11.20563519287325
C         7.83260986332806    1.18473924280129   13.11087548008057
H         8.68120060290152    1.76440278846675   12.78126399517448

