45
CSD_code = IFOYEK | q = 1 | S = 0 | Stoichiometry = C22H16CoN6(1+) | MND = 6
Co        0.08021107807216   -2.56457230284540   -2.05450363838564
N         0.01857263985379   -2.60299935698323   -0.18517162871804
N         0.14978826548073   -2.56382919975613   -3.92386083721689
N         1.20278042118463   -1.00090137947234   -1.81574598052572
C         0.77399828022042   -1.65632123113931    0.40582597789131
C         0.23870960122453   -2.50593802056762    2.58434430802024
H         0.33236068248190   -2.47166038346540    3.65803477789372
N        -1.52423464817508   -1.49913679142052   -2.28319356503554
C         1.57327820250805   -3.63359477317823   -1.85297035359032
C        -0.93351386519517   -4.09438154311676   -2.26598125814638
N        -1.64256460425615   -4.97471599073920   -2.44673241444950
C         0.89806277373772   -1.58456174188339    1.79134924632357
H         1.51097508616588   -0.82386475004244    2.24474814736699
C        -0.89051627222688   -1.93816751089029   -4.50908456882828
C        -0.09142222956556   -2.52632333273686   -6.69305143188359
H        -0.19168006562848   -2.51797298472558   -7.76666449839089
C        -1.83643006664860   -1.32733962476128   -3.57905635906260
C         1.44262389585446   -0.74448989124035   -0.51848008510733
C        -0.61729107027726   -3.48841368227229    0.58402574615039
H        -1.20634648735355   -4.24269219768325    0.08148286519470
C        -2.97723777901101   -0.62833793367994   -3.96897533418567
H        -3.21358983170588   -0.50226691583631   -5.01196422079137
C        -0.53651373201208   -3.47454944540831    1.96490672548746
H        -1.06664995693767   -4.21808993521907    2.53678137625352
N         2.55047164296573   -4.20283235063245   -1.67552814425300
C        -1.03278938150950   -1.90318018357638   -5.89427360177107
H        -1.87481705727866   -1.40365429189595   -6.34299170583814
C         1.77656456949646   -0.23109752414154   -2.73596457090593
H         1.57003712058355   -0.46304575300853   -3.77203289189026
C         2.27131227546216    0.30359626418390   -0.12234509436733
H         2.45582703790625    0.49243487184430    0.92160667812753
C        -2.33245815553725   -0.98939391461548   -1.35823765383346
H        -2.06041581676106   -1.14835081373056   -0.32350651977931
C         2.86626016097260    1.09798360132792   -1.08483801696964
H         3.51722568633657    1.90931918290857   -0.80046573777442
C         2.61100474780375    0.82546961409101   -2.42073203980452
H         3.05326760048675    1.41513454074423   -3.20675511387580
C        -3.48200487174843   -0.28576211904758   -1.66719891773721
H        -4.10368037133656    0.10312596846838   -0.87761267855854
C         0.97557130506490   -3.16508842823857   -6.07955350211287
H         1.73348199863681   -3.66904337669893   -6.65621866940587
C         1.05629448827715   -3.16212687724540   -4.69858977490261
H         1.87313678016004   -3.66548937033666   -4.20069582855901
C        -3.81308918265890   -0.10203676751252   -3.00162470728971
H        -4.70467089511300    0.43635864617733   -3.28110450476355

