81
CSD_code = IFUBIX | q = 0 | S = 0 | Stoichiometry = C39H37ClNiOP2 | MND = 4
Ni        1.99297288797040    7.91823082308491    3.83769192110442
Cl       -0.10506434769852    8.09336698681240    3.54763650472326
P         1.82175604255955    9.32253493761746    5.43722006430239
P         2.22841914828896    6.85982783432035    1.96927384901882
O         2.98025902382656    6.17082606516234    5.39514323057430
C         3.84530827697430    7.87077785157409    4.10628541549044
C         4.90946334545400    8.60399229205795    3.55178421022721
C         4.67991192335051    9.68239969996993    2.67089384094012
H         3.64906094224921    9.94093119202183    2.44890190653097
C         5.72201248372567   10.37307393904765    2.12347821059486
H         5.54126825033208   11.19872383545592    1.44991813844099
C         7.04399943975258   10.01050524588615    2.43105956468223
H         7.86012771028220   10.56052705456884    1.98469190124704
C         7.29871102777019    8.97589855507780    3.28667951362821
H         8.31686119511119    8.70008754250495    3.52464458123816
C         6.24732600399974    8.24476636606299    3.87741970437127
C         6.47290900541973    7.17103057363760    4.76032195381675
H         7.49110729465913    6.89602960041686    4.99544202366073
C         5.43076418875257    6.46948776552880    5.30743172088634
H         5.61467748909763    5.63062747175278    5.96378286248949
C         4.12027254725739    6.83276126509008    4.97094488060004
C         3.00819472550192    5.51955021880275    6.59426245121430
H         3.74608040768599    5.87855327063825    7.30453119795737
C         2.16372419239841    4.54322376967794    6.90125011240799
H         2.20970882921612    4.11725321587990    7.89194164481758
C         1.13463250664247    3.99753943118607    5.96860594946271
H         1.23943967549653    2.91643060046091    5.87909141341002
H         1.24225048225031    4.44473330958838    4.98431029753019
H         0.13150778199882    4.20287983049522    6.34245835897329
C         3.20851142414319    9.70488376145546    6.58928078537682
H         2.94470997645238   10.54374886642031    7.23198620646200
H         4.11857716400730    9.92965862018884    6.03703840996630
H         3.39007247635850    8.82515341901658    7.20571959514833
C         0.53177397350291    8.96239919700315    6.67095487908526
C         0.04710144168721    9.94961148689389    7.52165797093198
H         0.39252518640019   10.96960326691596    7.41848880937887
C        -0.88999000432845    9.62756062541050    8.48574724474679
H        -1.27310267793720   10.39688446522032    9.14081653254201
C        -1.33973928957755    8.32258505199375    8.61198237835430
H        -2.07366487713567    8.07735625214087    9.36588942271969
C        -0.85308069540795    7.33673226599834    7.77034708075541
H        -1.20564500535210    6.32034927049722    7.86787250970795
C         0.08039643071666    7.65580557959600    6.80121598633289
H         0.45633868488045    6.89929868559922    6.12463041800216
C         1.37737520836516   10.97061883531320    4.81382459337162
C         2.36810404245118   11.89089797233369    4.48604697161911
H         3.40925843542320   11.64113141013139    4.63313429787216
C         2.02411840050791   13.12284696307607    3.95977530562019
H         2.79823637862174   13.83444478052853    3.71031829665354
C         0.69291854207480   13.44226589430660    3.74817729214544
H         0.42714712789832   14.40554989699903    3.33765592677723
C        -0.29524688012291   12.52051642258066    4.05369145177874
H        -1.33330702279345   12.76170200189370    3.87753637448331
C         0.04255362267197   11.28694710838936    4.57875143341869
H        -0.72402706400934   10.55758864751197    4.79759343815702
C         1.50314246714994    7.74249803416020    0.53515613694086
H         1.71091996628223    7.19754534656832   -0.38540286132453
H         1.90066203925714    8.75447001267162    0.47639105360031
H         0.42765004560070    7.80246687980703    0.69988318667675
C         1.44056117242399    5.22770311420705    1.75504295688025
C         0.34839953153391    4.87738024553412    2.53845903227070
H        -0.02132394919570    5.57749182741089    3.27495390492487
C        -0.27383219726168    3.65407412169906    2.35923466798766
H        -1.12135474230209    3.38785384126488    2.97363638816359
C         0.18955204770180    2.77492428163938    1.39591612909870
H        -0.29295129329610    1.81841926028630    1.25657780032114
C         1.27310379923680    3.12441518881731    0.60523857202174
H         1.63262987965137    2.44230529992615   -0.15188320082700
C         1.89727680227412    4.34511828346395    0.78090585962931
H         2.74516767507614    4.61258761313129    0.16511172725628
C         3.93850364805306    6.50272953689208    1.45211097977758
C         4.60950947447906    5.47718636164691    2.11426345125463
H         4.06427593758891    4.85987209821157    2.81631332001009
C         5.95110806442442    5.25147683498192    1.88168349820363
H         6.46247295036236    4.45464565490224    2.40182686012013
C         6.64367772424870    6.05584730694706    0.99040533566073
H         7.69644752547976    5.88913532294125    0.81640546872950
C         5.98481088577306    7.07588344039294    0.32785092509320
H         6.52271291864648    7.70613178000181   -0.36543682247881
C         4.63928787188098    7.30302770978480    0.55951149063994
H         4.14001227501284    8.11129931091913    0.04631310362957

