33
CSD_code = IFUKOK | q = 0 | S = 0 | Stoichiometry = C12H16Br2N2Pt | MND = 6
C         0.95320975731486   -0.80265090148523    9.04123889728302
H         1.25826274655804   -1.63000184944333    9.68211040732557
H         1.84749333682632   -0.35531260014901    8.60045080723851
H         0.30857707051765   -1.18386640939628    8.24966493810498
C        -1.58237403393162    3.35556743600793   10.77027294285467
H        -1.62722682929329    3.33912204499071    9.68904780933039
C        -2.14890925564424    4.40283755024157   11.47575322489016
H        -2.62671207537792    5.21098077129768   10.94536566692446
C        -2.09157408637745    4.38348939343928   12.86002403006454
H        -2.52424560922048    5.18349773894059   13.44184167304882
C        -1.46829160594868    3.31218473670865   13.47886469721922
H        -1.39845211511050    3.24860359528755   14.55293714646849
C        -0.92727346820895    2.30935164991659   12.69263562913319
H        -0.42596729617879    1.46544692508889   13.14713062520902
N        -0.98080301861926    2.33070803791813   11.36460146953157
Br       -1.95920835444128    0.70048295445335    8.59498001584505
Pt       -0.00023427007620    0.66390670904909   10.13722891942427
C        -0.95334795976728   -0.80298182508688   11.23282835072206
H        -1.25781126004457   -1.63073773081324   10.59191150360670
H        -1.84805974479474   -0.35522132532194   11.67279720862757
H        -0.30878317092407   -1.18349380841638   12.02509901024925
C         1.58249537965509    3.35528818809561    9.50377214701764
H         1.62727935610371    3.33883050419448   10.58500483774500
C         2.14883909764940    4.40272761176291    8.79836675201876
H         2.62652379565498    5.21091924468521    9.32879390007889
C         2.09151201378057    4.38347642279047    7.41410923975463
H         2.52411247809546    5.18356654272325    6.83234356884905
C         1.46835167461966    3.31214489786510    6.79521153580087
H         1.39851548829450    3.24864908021001    5.72114607029768
C         0.92749622040995    2.30915716309254    7.58136041437405
H         0.42620015807129    1.46529858764045    7.12679627687158
N         0.98109061611627    2.33034406631574    8.90938792136980
Br        1.95931496428975    0.70088459739686   11.67792236272143

