38
CSD_code = IFUKEA | q = 0 | S = 0 | Stoichiometry = C12H18MnNO5S | MND = 6
Mn        4.78910377398214    4.19350281416086   11.24040518085868
S         6.00666283317453    3.46696762919733   15.60669285092050
O         6.48398209172280    3.77388531741682   10.47900678815441
O         4.26280719491021    2.37630500098743   10.97150690470730
O         3.01030706571185    4.67658438088986   11.81841462363791
O         5.25483324952294    6.05772862632841   11.33236525592592
O         4.01731694114001    4.50634678859993    9.15496065768267
C         5.62470703226910    3.70707178839807   14.09329409397939
C         4.27624568219741    5.65916194741247    8.37414276078345
H         3.65796387831058    6.50595288028413    8.68820696797807
H         4.09800979709706    5.44783109508424    7.31487703111260
H         5.32544555561301    5.90891314228761    8.52362537276082
C         8.39152322842665    2.66168665477614    9.60378340979434
H         8.73519418817667    3.68502202701923    9.47992427293991
H         8.45704973021678    2.13078797934413    8.65726000359913
H         9.03442122483885    2.15945863598498   10.32408628192110
C         6.97049408929452    2.66320346360131   10.12120227257434
C         6.27233461697612    1.45024567759951   10.16569285710280
H         6.76945864633421    0.54797055755543    9.84825207475022
C         4.93991588614853    1.37892412921496   10.58538121673396
C         4.24435923379038    0.03608890743953   10.55777309054512
H         3.20615690451372    0.15772264760864   10.85396040908548
H         4.73582019083543   -0.64122194204870   11.25254089871114
H         4.29463920507924   -0.39979968988033    9.56250367356899
C         1.13441810697245    5.80187925504263   12.74673163687156
H         0.64994410280232    4.85855771360484   12.51049771952019
H         0.57823064505410    6.62684345402450   12.30879755358321
H         1.14170969736771    5.92962661842321   13.82708000110933
C         2.56035345669425    5.78243217159358   12.24321222383175
C         3.28926493408196    6.97578046097314   12.25211300275613
H         2.82282909297667    7.86988062145992   12.63276384976945
C         4.60604186750784    7.04682811381824   11.77835935904772
C         5.30023975405954    8.39050884185340   11.77740422249325
H         5.47449032943571    8.70505236878947   12.80416225737218
H         4.68502840901484    9.14288691691345   11.28952590146263
H         6.25602002129167    8.30588680889591   11.26786031956176
N         5.34744304588364    3.88987889969711   12.96138786942578
H         3.08283429657890    4.26991729564814    9.07944513336252

