38
CSD_code = IFUNED | q = 0 | S = 0 | Stoichiometry = C16H12N4NiO5 | MND = 6
Ni        9.47546236952182    8.18578863010413    3.21670571937194
O        11.36312749546086    8.59985208763978    3.42670771584203
O        13.08738932158869    8.17809472740727    4.77790632949555
O         7.55212711192641    7.67019165487952    3.51620033926446
O         6.34076492866112    6.36017350942112    4.85582341605078
O         8.57880112227992   10.24828117242742    4.24402004948888
H         8.77891500100998   10.25498027293645    5.18466675489022
H         7.65884343614196    9.97235926953334    4.14315150184894
N         9.69538802866790    7.35187552107580    4.76304930325392
N        10.10453378390125    5.86874939194655    7.01838385867728
N         9.46220711866792    6.29322198599038    1.86193556611816
N         9.33253002119275    8.96272789809753    1.53880749438086
C        11.92463517659013    8.08608207861355    4.45219506447472
C        10.91559981329308    7.28194790440871    5.29312977066168
C        11.10215777765528    6.52352612846841    6.44603215506087
H        12.07790682502355    6.44823742073981    6.90391107468233
C         8.90511811567382    5.94408605413877    6.46380334279174
H         8.10031288907444    5.39826419664944    6.93497545547696
C         8.67552711035955    6.69436197284226    5.31403760438816
C         7.37430781891812    6.89551886720911    4.51613405535687
C         9.33237066745826    5.01413886975056    2.17142691413397
H         9.81538125056517    4.68967440015792    3.08479342686366
C         8.62810121852389    4.11306245206277    1.38647839452553
H         8.54651616359388    3.07947114406653    1.68188220433962
C         8.02682322751216    4.57883657632366    0.22886656953014
H         7.45303655376757    3.91433535997072   -0.39956457791502
C         8.16787055349722    5.91431351256732   -0.10897984787407
H         7.69003803140040    6.30755703516143   -0.99194167611869
C         8.90070865219091    6.74616282260352    0.73307843464234
C         9.10240452423508    8.18221233922480    0.46996553447580
C         9.08728822075518    8.70918799057837   -0.81896251791080
H         8.92772361766717    8.06056725862727   -1.66535493537110
C         9.30894075459035   10.06209078760401   -1.00337269552940
H         9.30638227022564   10.48689371554072   -1.99568000478163
C         9.54407580550101   10.85383107286457    0.10923106891442
H         9.72670308999953   11.91175122565119    0.01253254586132
C         9.55059737089171   10.26086849165788    1.36119860406664
H         9.73588276202447   10.84232420106185    2.25502598656957

