49
CSD_code = IFUPUU | q = 1 | S = 0 | Stoichiometry = C21H23ClN3Pd(1+) | MND = 4
Pd        0.83862816674162    4.15347829352723    1.51551886400970
Cl        0.64368965373966    6.35959645487093    1.67948762354938
N         0.95716299703421    2.25811553764507    1.22843338082306
N        -0.91282549691945    3.66066084455671    2.50680644165532
H        -1.71741312719007    3.99125131577895    1.96299364678414
N         2.63246777105802    4.19135370598064    0.51448141288165
H         2.67611693089257    4.94057655353188   -0.18237779961968
C        -0.96877632202712    2.17618396780744    2.65365266081589
H        -1.97979885764101    1.80331838565849    2.45521328392611
H        -0.72867117587769    1.93189847651020    3.69722450790707
C         0.02700200150897    1.46757633136280    1.76318884337240
C         0.05081685139787    0.10326435577892    1.51370554671449
H        -0.69948059192552   -0.54520593334618    1.93543661570789
C         1.06473853498903   -0.40619657049551    0.71183833509884
H         1.10786712127329   -1.46389273855274    0.50713453710837
C         2.02157142518883    0.44334500042065    0.16973597100303
H         2.81133183876777    0.05993562398208   -0.45530478840598
C         1.93426853487174    1.79995451950884    0.44397056731276
C         2.85821127469484    2.86330276838856   -0.11193583062717
H         2.66754386311058    2.94381132150980   -1.18890016868775
H         3.90529932198792    2.56041510592656    0.02053307208493
C        -0.88993248266959    4.36009994646653    3.77138773562688
C        -2.01614807995375    4.99969453896785    4.26343442840873
H        -2.93880890861717    4.98981445946478    3.70105038658938
C        -1.94822814705255    5.67631721640687    5.46897499369341
H        -2.82525334918954    6.18335181386191    5.84051409405438
C        -0.76832232551965    5.71949751798880    6.20115017321589
C         0.35444301678354    5.06776260962036    5.69525982727845
H         1.28249751855904    5.10415001137372    6.24495043727380
C         0.30193112908273    4.39188665252078    4.49237095432904
H         1.19730218009235    3.89882849252846    4.09440552554822
C        -0.69214126131695    6.47901712493190    7.48489069403717
H        -1.66523885321494    6.53346886707174    7.96519153835403
H        -0.35821741857036    7.49755300541140    7.28680099229433
H         0.01850981275531    6.02145794738643    8.16820571803433
C         3.51049060997912    4.53077607228827    1.60633269388097
C         3.73120550844290    3.62852799461443    2.64586442749182
H         3.28847765424570    2.63719950804777    2.62747383741392
C         4.55140842790076    3.98623939050688    3.70324133327459
H         4.71895879923767    3.27898475638801    4.50168023286756
C         5.15776028357767    5.23514421730782    3.75370374896631
C         4.92917543507618    6.12361020538128    2.70713067207031
H         5.39275083402949    7.09762342144287    2.72752874780604
C         4.12263067711608    5.77897205764247    1.64036690715338
H         3.94824946692028    6.48785585360475    0.84414567591412
C         6.03600639673647    5.62818134962330    4.89654194365405
H         6.12316248939090    4.82457432505804    5.62183317136832
H         5.63290571551495    6.50789214440799    5.39513937320040
H         7.03147415498986    5.88327517932141    4.53759301278777

