96
CSD_code = IFUPOR | q = 0 | S = 0 | Stoichiometry = C37H41CoN8O9 | MND = 6
Co        1.47106917166983   -0.09686219010836    9.34469184950280
H         1.09609284033818    1.13844621874284    6.92042365676534
C         3.96022623128302    0.87031509747199    8.92495264566400
O         2.53596601685681    1.43754435234936    7.25578491751971
N         2.78465344097096    0.83077598435728    8.36893652411687
O         2.84016208049897   -1.02937144752608   11.71971406979078
H         1.85850339919845   -1.37116375156677   11.75979424668324
C         4.02833914188560    0.17263853249331   10.18142810523987
N         2.90817977733648   -0.36185175124305   10.54061987269285
N         0.15985521141219   -1.03808026455875   10.32422374810511
O         0.38032140304382   -1.54352918757454   11.48925614103088
C        -1.01426549017125   -1.08800681617471    9.76358254139551
N         0.04319615673593    0.13349898504859    8.14363228545120
O         0.10247922515860    0.83011495607655    6.97790858088698
C        -1.07472584532169   -0.41048699444519    8.49698486797090
N         3.00278971036359   -3.94761871094137    6.00141669441882
O         7.05897064998228    6.70970869117466   20.46163157372590
C         5.12871599487143    1.58118816825735    8.32215939196661
H         5.91561143585081    0.87405176722552    8.06300975968344
H         5.53892717657468    2.31279257483346    9.01618988286932
H         4.79858391010269    2.08790562510029    7.41781175381242
O         5.36445408902480    5.91868672881029   21.52226411430161
C         5.28370612820587    0.09380326118780   10.98259372182260
H         5.13764120729071   -0.57620759902663   11.82564039129009
H         5.55592758343933    1.08073028299018   11.35469536118463
H         6.10063922663492   -0.27157343889346   10.36393048230292
N         5.86680006108843    6.51847621829132   20.59269999326652
O         2.53726233396065    8.57050452538643   16.67073549854797
C        -2.19375851778870   -1.76635217779861   10.38256613315130
H        -2.99137971224344   -1.05219039008699   10.58407214300984
H        -1.87918484224508   -2.22226701136740   11.31879508284697
H        -2.58370816085225   -2.53884237002808    9.72190084532470
N         0.57874642646346    8.30209430928067   15.46173232982856
N         0.96249685037212    1.64730763180903   10.34338500284038
O        -0.09922424021263    5.12625229672177   13.70610275744356
C        -2.32590628338724   -0.34196143040703    7.68767790836870
H        -3.12277607475392    0.12722289189890    8.26203572768521
H        -2.65077211517519   -1.34582661744572    7.41866272690433
H        -2.14743196021944    0.23272025669128    6.78267377775686
O         0.03305756333172    6.35155692531356   11.82607025190024
C         2.00222687533402   -1.78174841828838    8.40108380169886
H         3.03306016802344   -2.01927517549329    8.68233314185552
H         1.37480616215270   -2.60183663709670    8.76264551565543
C         1.93129881361046   -1.76181852566348    6.86967457865671
H         0.90136734452834   -1.71357818327904    6.50773874768025
H         2.48785800643119   -0.92167249821210    6.44536885820978
C         2.52380672568902   -2.97635393137448    6.37020969303797
C         4.99170916045988    7.03512397812510   19.58200572280350
C         5.52270028434260    7.74140562195709   18.50372916008664
H         6.59035302068314    7.88826868531356   18.44898913149806
C         4.68240854027760    8.24193092561092   17.53571145582729
H         5.06634532174706    8.79225390468247   16.69190072738957
C         3.30096555205782    8.05301360340265   17.63810613011288
C         0.56775582676849    7.64255675044409   17.79292169550264
H        -0.48828953573785    7.44027380452835   17.72646885573107
C         1.34358457656826    7.06705618582130   18.70774792480619
H         0.94432694660157    6.38202039264882   19.44016408440594
C         3.62376602782991    6.81323143679355   19.68275897141483
H         3.23791594536173    6.24626968210226   20.51676339664467
C         2.77122173465632    7.31568919565898   18.71521298667829
C         1.09384794525289    8.60803584951860   16.77698374769049
C         0.64678093440776   10.10053270381751   17.01467645072694
C         1.68986628253346   10.89101512618529   17.79943095327800
H         1.87680019146993   10.42327066458979   18.76501657632687
H         1.32561143012636   11.90024297689881   17.97142964857181
H         2.62503592609685   10.95200044069584   17.24892749770501
C        -0.70469108008099   10.16753025305939   17.73383196213866
H        -1.02973894145331   11.20401258716005   17.78023194033036
H        -0.62642318538031    9.78262874288270   18.74837683529752
H        -1.45720083644226    9.60162179061767   17.19003699273402
C         0.46694506477584   10.58029527687737   15.59446320758315
C         0.30606285794635   11.85481477983753   15.10387845239413
H         0.33927254401865   12.71072189801146   15.76096090602392
C         0.10474579101868   12.02270614148971   13.73831061980328
H        -0.01863355573509   13.01626639098879   13.33524058448346
C         0.05854330989387   10.92670086375084   12.89506421629756
H        -0.10133173819894   11.07342088681355   11.83727871655861
C         0.21533409059810    9.63486465001270   13.37956996689353
H         0.17682537056775    8.79245823390926   12.70710304992922
C         0.42343854602897    9.47838535985818   14.73769356140180
C         0.90231038966676    7.05366585113690   14.82563986909758
H         1.50191028169844    6.44093648866315   15.50439434838361
H         1.48383215778456    7.22670207072160   13.91203013066943
C        -0.38570918686539    6.29918685233759   14.45736737989223
H        -0.90845634480014    5.95905653072614   15.35247741711121
H        -1.03494534331191    6.95949155464622   13.87361024788637
C         0.09702728064791    5.29031152538732   12.39421053188031
C         0.39361953357624    4.00360085890921   11.70641006649319
C         0.57012344178002    3.99895767162390   10.32548609411607
H         0.48790329243934    4.92039833561068    9.77120390227663
C         0.85058449898402    2.80390660642361    9.69016971210632
H         0.99747472093347    2.78388774930313    8.61886433752462
C         0.78760373231916    1.65000784981435   11.66472608564812
H         0.86778680146988    0.69978987647842   12.17537322929450
C         0.50393156585824    2.79477176599344   12.38660890500116
H         0.37228353154946    2.74964786522823   13.45499991744699

