96
CSD_code = IFUPUX | q = 0 | S = 0 | Stoichiometry = C37H41CoN8O9 | MND = 6
Co        3.39774929137761   -0.38344017827822    9.82589870496024
H         2.64187434410602    1.09000081726561    7.62580739628448
C         5.70389818424514   -0.39746830925136    8.46841002011021
O         4.08574745349818    0.81829932766434    7.42628136306671
N         4.48629280415243    0.04590947484177    8.38528121907359
O         4.93995933037511   -1.89110230708932   11.56681893682259
H         3.59116906124903   -1.79423647100594   12.17952225055288
C         5.94989118532611   -1.17692496482605    9.65110176074920
N         4.91298037404597   -1.27659659583102   10.42543502050580
O         2.60000601770681   -1.50534505147860   12.39824944039401
C         1.04499701342646   -0.30779091868324   11.23424084912869
N         2.24058965027388   -0.78168750023825   11.31684835158939
N         1.80559032116065    0.51815908927242    9.22602994440569
O         1.68907025037283    1.19364242833435    8.06459944932994
C         0.79300619030875    0.44815334914175   10.02121453124020
N         0.24890148035500   -2.34131370462706    9.09981374141902
O        -0.69465446544404    5.98342142128625   21.86090590104254
C         6.74880682874832   -0.11187125200440    7.43948487790138
H         7.15603103235787   -1.03894836614965    7.03936857710556
H         7.56760490784039    0.46208761192860    7.87151358737096
H         6.29752355201956    0.46108016573110    6.63256975436827
N         0.50935160160782    5.83016426482105   21.81888439410814
C         7.27299441521236   -1.79270386355687    9.97078109428700
H         7.19296424049740   -2.32356079665186   10.91677169909273
H         8.04389837298395   -1.02761542424119   10.05135248918528
H         7.56706235076124   -2.49266616246654    9.19025638420523
O         1.15874830076630    5.24822266886572   22.66499651501997
N         4.95937506697805    7.82369693370721   15.99881884320482
O         3.17423047095041    7.97866935005320   17.46622453857918
C        -0.01894430674906   -0.53995358202320   12.25036238754673
H        -0.41478367518177    0.40315418673772   12.62257087926061
H         0.38776535942752   -1.11504798161409   13.07803269689155
H        -0.83248542134989   -1.09963953120781   11.79190439765460
C         3.24836802099767   -2.40949538502458    7.52320448912254
H         2.92123224826268   -1.61556787218372    6.85525098706399
H         2.80388111774980   -3.34413725804599    7.17403987784242
H         4.32932673448827   -2.50511472573255    7.45729455572611
O         5.03952921194523    6.00645181994586   12.27917826568564
N         4.04332355922438    1.32535875885268   10.76874918594786
O         5.49945334960086    4.72365894503810   14.06693783339911
C        -0.54383515059254    1.02999856492561    9.71901603996265
H        -0.93440036382053    1.58249495487213   10.57021605028084
H        -1.23276129280973    0.21916139709763    9.48475148910652
H        -0.46938184709578    1.68531860052123    8.85504721046665
C         2.81010014734179   -2.14594530849176    8.96661848931212
H         3.21790351010299   -2.93530340971856    9.61307616600004
C         1.39354389890948   -2.24314875983059    9.04560333465421
C         0.51000342808557    7.05559126666335   19.70407901013226
H        -0.55872790811858    7.16658039287806   19.80244351400252
C         1.21327069560669    6.37184957337142   20.69444177688326
C         2.57350970937204    7.43926141248872   18.53158925658528
C         1.18611354886490    7.58047794374852   18.62655912899849
H         0.66740228108750    8.11430362013658   17.84680143943354
C         5.31335600049547    7.12332921912654   18.29421877897856
H         6.35448832255973    6.95570362872800   18.07440789673130
C         4.69552224811326    6.52073344375492   19.30690383916756
H         5.21671359280379    5.84606073125904   19.96880607290509
C         2.58822477788242    6.19590944885294   20.59880686274180
H         3.10795740390631    5.64509139832730   21.36831698886456
C         3.27652242506077    6.72352374845737   19.52039666290542
C         4.61592001736932    8.08059183564280   17.37882559350972
C         5.02755246815762    9.58673090635616   17.59142017957149
C         4.07656015651746   10.31202311694753   18.53899588068628
H         4.05221717642835    9.81725522450704   19.50889841858533
H         3.06958778451780   10.34090401148997   18.13091853368341
H         4.41822267804363   11.33344286709723   18.68319013684746
C         6.46491860950077    9.70039863908357   18.11031057951460
H         6.55042854424089    9.29269081344189   19.11531501663876
H         6.74992483952765   10.74932228246121   18.13610495883727
H         7.15334611404644    9.17913954199122   17.44960345947606
C         4.97909852862775   10.10246814645352   16.17349757950201
C         5.00390973312466   11.39304204361992   15.69960930354197
H         5.02313347823125   12.23270767719587   16.37788187620822
C         4.99690193517353   11.59784904352577   14.32434869241533
H         5.01010158335845   12.60421576639600   13.93452710221989
C         4.97565027601975   10.52210691370152   13.45444994440210
H         4.97296347549600   10.69754652468919   12.38900882846294
C         4.95509203216917    9.21446035723028   13.92153031290156
H         4.93791598181920    8.38872932801607   13.22791878521075
C         4.95275001606382    9.02078277379918   15.29065982511851
C         4.59811404246708    6.57513133477007   15.38255127861158
H         3.88668421508870    6.74198709604961   14.56484834937182
H         4.12464201290921    5.92467186264091   16.12304449640608
C         5.84798324693189    5.88158068868702   14.81585908104129
H         6.39003427655086    6.58432718933416   14.17511059113259
H         6.49867907891052    5.53082660879452   15.61814458732370
C         5.10179733813468    4.92439645833525   12.80676414132370
C         4.74934222959148    3.65139821147396   12.11965319422752
C         4.35563839354660    3.68857624813492   10.78479449972861
H         4.31998580168480    4.63085397594610   10.26150412291479
C         4.01490832016301    2.50747563902110   10.15313453910115
H         3.72119666536080    2.51689032354394    9.11211945799906
C         4.43939439540913    1.28586343143322   12.04111072005777
H         4.48332883320770    0.31488742550171   12.51558075603566
C         4.79845152978814    2.41424064814105   12.75486252816283
H         5.10927293839311    2.33499076615953   13.78339544995247

