53
CSD_code = IFURIN | q = 0 | S = 0 | Stoichiometry = C23H24Cl2NO2Ta | MND = 10
Ta        2.84693365683956    3.93669505081401    6.44266945227833
N         1.14919161218513    4.41425155581351    8.04577834691945
C         2.26252500685636    6.86833486925481    6.79934551868990
O         2.83652590462928    5.77859486242278    6.34034265999812
O         2.26778125504136    2.26906466372464    7.10220610973898
Cl        4.07158318393999    4.17523278349779    8.48948802711280
Cl        0.83557928376541    3.97607419019886    5.13783862443376
C         1.23428406773147    6.80977671811554    7.78284802859594
C         0.66717276852445    8.01254841075647    8.22439659349345
H        -0.11378420051060    7.97031057899273    8.97023606077246
C         1.07561499442188    9.23447964201719    7.73562793582219
H         0.61893134702069   10.14324106536785    8.09494832926277
C         2.07891674379779    9.28575461238246    6.77774159782300
H         2.40780044341387   10.23688640853954    6.38729922179927
C         2.66071404005374    8.12151000111479    6.31962973389667
H         3.44182026214871    8.15070663604581    5.57459539295006
C         0.73338785097653    5.58530639061817    8.35768873564540
H        -0.05502799124426    5.71687522577411    9.10315463858364
C         0.69447549400679    3.21173237270411    8.56691561333971
C         1.33921035651691    2.07088187454668    8.01422807580575
C         0.96323393547310    0.80292859509319    8.45842076121745
H         1.45445789877883   -0.05874043537565    8.03313433595869
C        -0.01824555444313    0.66323456197833    9.42163277816658
H        -0.29848108577591   -0.32409132406593    9.75636660289910
C        -0.64384355008347    1.77795676746502    9.96005538971238
H        -1.40840988073110    1.65889579530755   10.71203574839274
C        -0.29157068445109    3.04538856078190    9.53612429045426
H        -0.78550061653506    3.90583345559831    9.96210734449615
C         4.99057721082086    3.65700435415196    5.39999508681169
C         5.22792900485806    2.31117069123906    5.83496547605492
C         4.40630217993630    1.44329993305860    5.09919448744158
C         3.64320030531557    2.20273357297183    4.20426709752128
C         3.98240673996488    3.59175425186011    4.36922885595510
C         5.97086048070802    4.77830817340304    5.61597943260393
H         6.25214081883075    4.83270818636810    6.66660084446524
H         5.54280439243087    5.73729266973612    5.32731129723379
H         6.87313069486294    4.61142685656474    5.02482289685373
C         6.19142424449209    1.95266731460824    6.91146121648984
H         6.16204104543545    0.88944164980552    7.13016212608390
H         5.94030585371407    2.50441259171733    7.81933384240218
H         7.20739895090908    2.22822869285027    6.62629270200626
C         4.31562244829543   -0.03365974645726    5.32025532752426
H         3.78605277834471   -0.51872467519355    4.50479686877779
H         3.78005651647331   -0.23995661514774    6.24855585471527
H         5.30856786217693   -0.47469648103528    5.39397799932139
C         2.62405821891705    1.73375121792407    3.22555905408146
H         1.67812673982751    2.24361068788138    3.41804768849899
H         2.46104916919706    0.66241625945100    3.29754238036923
H         2.93113485796901    1.97565779877808    2.20738348038160
C         3.74067752580702    4.62583122532591    3.30214549925587
H         2.69847571976322    4.60351264837067    2.98731927947716
H         4.36930838492617    4.42695844448967    2.43216517352844
H         3.96527131367655    5.62718640779211    3.66708008389169

