73
CSD_code = IFUROQ | q = 0 | S = 0 | Stoichiometry = C34H28N4NiO4S2 | MND = 4
Ni        1.78372873147888    5.59840790432054    4.85194777545758
S         0.17293122270090    5.68671529492122    2.72639004513555
S         4.03216284239778    4.95935354875875    3.22635424085315
O        -0.93459538814908    6.35901901774948    2.09832643978568
O        -0.16623532320501    4.72072769848371    3.75810622675971
O         3.74403714253675    6.32770173260604    2.89550549716761
O         4.78912165813217    4.19582828906726    2.26874928618742
N         1.15164340403143    6.74095810443588    3.52070209932563
N         1.66809217991411    7.02271039862112    6.09558816491245
N         1.96265064811699    4.46120019894385    6.28068281514043
N         2.65779222802785    4.22994095033533    3.71432660614843
C         3.38361223714886    2.83560268064658   -1.53585047756353
H         4.40157520085608    2.72432669951687   -1.16345020205580
H         3.42850108205622    3.40543391603322   -2.46188606826356
H         2.98101783459621    1.84836506947932   -1.74744982317310
C         2.55601054085357    3.55016802843450   -0.51250221904447
C         2.78281722661437    4.89835635195800   -0.25351430355342
H         3.54156565647174    5.42603787157141   -0.81138401242275
C         2.06042480606959    5.56505195498343    0.71889757253927
H         2.25020947213586    6.60446736204393    0.93039028235309
C         1.11848823885838    4.86964154404085    1.45200476405864
C         0.85881911460975    3.53770754277810    1.19734640742370
H         0.11379306479524    3.02993093771895    1.78994233225897
C         1.57584481480876    2.88182594426111    0.21164964810753
H         1.38223851737933    1.83688148101968    0.01615138213442
C         1.17839968393024    8.06428793654980    3.39756581880192
C         0.81574829912473    8.73245743506759    2.20584658873954
H         0.44252388371539    8.14051745799602    1.38592374023388
C         0.92682393180508   10.09173882721230    2.10203559603657
H         0.66047098760928   10.57944103813834    1.17552466597139
C         1.39350125098270   10.86713281771974    3.17490509578233
H         1.49351494242840   11.93561339102579    3.06158718986962
C         1.69789934181176   10.26036319021777    4.36058843557130
H         2.03143527875133   10.84886650416516    5.20410732579152
C         1.57452934009939    8.86321092485374    4.52147385904704
C         1.75676533141823    8.29481792761803    5.80052426229753
H         1.96942668160784    9.00187802465738    6.60256951070099
C         1.76847186362378    6.54183737438991    7.39864933618994
C         1.69716244534095    7.30086355120929    8.56633243315034
H         1.49784188244156    8.36009077930489    8.52530341002840
C         1.87538741024524    6.69576165910505    9.79667779059820
H         1.82774325451933    7.29179535659487   10.69527667529544
C         2.12712918403558    5.33438597023898    9.88402509216700
H         2.28687424628015    4.87708768575446   10.84869179212396
C         2.16549311008096    4.55621335670370    8.74150985427531
H         2.37779800145585    3.50121028889470    8.81902540130522
C         1.95426724895273    5.14164991612867    7.49580317880181
C         1.72924940099595    3.18183518641541    6.19757590186975
H         1.39445277604093    2.65504110776984    7.09222378334274
C         1.95354370467801    2.37034432203135    5.05679977584952
C         1.69711579307511    0.98802593143051    5.13790096733753
H         1.18744920109699    0.60706075623513    6.01175458238632
C         2.09311246796977    0.13400484938448    4.14325408683352
H         1.88591249329730   -0.92295957036316    4.21141022853867
C         2.79550075072274    0.64072016331989    3.04373614306567
H         3.14073179615966   -0.03725311516086    2.27650670695581
C         3.03756554006625    1.98432483096415    2.91580536195523
H         3.57689476743668    2.37612635571779    2.06986524316233
C         2.56624571395142    2.89978217456265    3.87849145836907
C         4.83775475268850    4.96146052992277    4.83325540351980
C         4.72891251583842    6.10623035665170    5.60560564198364
H         4.37261032255760    7.01190557997062    5.13483061260246
C         5.10247604093671    6.06641112696540    6.93665016999928
H         5.02032659477375    6.95232158101632    7.54966520917629
C         5.57031177848368    4.88525800802053    7.50702844182871
C         5.68992688924589    3.75377202212242    6.70900108392602
H         6.06359837736696    2.83499880050611    7.13740529393082
C         5.32057331142350    3.78616926059047    5.37410168314489
H         5.39415812279576    2.90914141166158    4.74936499735972
C         5.92940644522700    4.85149324249331    8.96086502621283
H         5.07897371423857    5.16888650562107    9.56271884182477
H         6.75365813328076    5.53397252378036    9.16248841667106
H         6.22488384214547    3.85214412210334    9.26812340570932

