95
CSD_code = IFURAC | q = 1 | S = 0 | Stoichiometry = C51H41P2Ru(1+) | MND = 9
Ru       16.83276629872594    5.81005784649535    9.21636938315999
P        17.27027419626704    3.60005137579433    8.64568348094375
P        15.15683797551329    5.79837128785831    7.65752554744908
C        18.34529793248708    6.63017108397129   10.73545328419848
C        17.64223243712527    7.71720680725719   10.14433397134191
H        18.20606050687771    8.54843107591142    9.73176123157132
C        16.24549548245482    7.78387954122035   10.19384989675713
H        15.72927986407640    8.66488169482932    9.82714070394453
C        15.50546349821872    6.72978831100822   10.78174768836654
H        14.42625191735299    6.81824295314207   10.86608452751969
C        16.18272218933402    5.66793083989176   11.40017263659129
H        15.63338848501773    4.93959777651700   11.98546590628100
C        17.59349637276554    5.63207857270256   11.38093726138872
H        18.11670953556940    4.86163207137012   11.93852312391336
C        19.84272647941150    6.63615199434431   10.81145232660564
H        20.23087981545926    5.62583654690530   10.93412991272991
H        20.16121081916351    7.23301563272409   11.66876438688635
H        20.27910800684729    7.07346027694748    9.91486682214670
C        15.23610764014423    2.80681088700673    6.93679947882285
C        14.06243834676199    2.09380145177667    6.56406722692101
C        13.51716834981035    1.13304785908337    7.45381671537346
C        14.20012990793289    0.85758412770671    8.65445115266613
H        13.82280200096139    0.08012479792775    9.30251460709198
C        15.32648294874714    1.54780167055654    8.99484096380312
H        15.85082784965781    1.28315591158668    9.89847784155454
C        15.83874457866349    2.56330739040006    8.16138290598865
C        13.39323515476755    2.33209235711370    5.34299198302338
H        13.79574727279469    3.06003687091945    4.65564039960177
C        12.24708318880346    1.65718417139284    5.02897044538511
H        11.74744265957741    1.84964109146644    4.09162605225310
C        11.70670699221273    0.71379861258988    5.91571257857613
H        10.79976565809822    0.19237285534860    5.65040259259700
C        12.33053244011918    0.45729811814066    7.10362532127229
H        11.92760815790705   -0.26953483138365    7.79341330993560
C        15.82154993508081    3.73236801561776    5.94183721116888
C        16.41569256173381    3.17197024327180    4.77585531577468
C        16.91045900151182    4.03578698095868    3.76446257467611
C        16.76162561770544    5.42922579663141    3.92060792093167
H        17.10788964928805    6.08081552314917    3.13192446427221
C        16.18703306151021    5.95072179888247    5.04195005845117
H        16.06436325705052    7.01842704502235    5.13862436019098
C        15.72327905641040    5.10675282715639    6.07166367953683
C        16.55290374581331    1.77820953905831    4.59527254761896
H        16.18501528957050    1.10977127088342    5.35834581572328
C        17.14405668357462    1.27207059701473    3.47175204730863
H        17.23932756549147    0.20420066081204    3.34681794482551
C        17.63435581572961    2.12843135929933    2.47525305104772
H        18.09907950654996    1.70996366559249    1.59563304308036
C        17.51964886794141    3.48217994144325    2.62008324494386
H        17.89192887983840    4.15168448544426    1.85888248560757
C        18.40695889952368    3.16386615902458    7.28696032319100
C        18.59537659055295    1.80618061079537    7.02748364461927
H        18.08610446065639    1.06984740431236    7.63552050703651
C        19.43152440549438    1.40651823602303    6.00382876627585
H        19.57771335587484    0.35493040647472    5.80919593422123
C        20.07788315279680    2.35384228437035    5.22478249208503
H        20.72423358847660    2.03938705492724    4.41993884015350
C        19.89440575640813    3.70160292326930    5.48057777346241
H        20.39860398090969    4.44022217197320    4.87625298984967
C        19.06588800569752    4.10736628034931    6.51233866748446
H        18.91682202034761    5.15865633590363    6.71802468590326
C        18.05419113011397    2.76469002559235   10.06342625218092
C        17.33444858859028    2.50957373000948   11.23173419604388
H        16.28671437400741    2.77193299547713   11.28766813823032
C        17.95420459416457    1.93958180426092   12.32871658356476
H        17.38245519568089    1.73100264500463   13.22108199683241
C        19.30830038957497    1.64648008073129   12.28720766212870
H        19.79136415831634    1.20362361666886   13.14434712557595
C        20.04010963815132    1.93880605105733   11.14817041439616
H        21.09913762729476    1.73174278985607   11.11886971414466
C        19.42099731766174    2.49664265811519   10.04292182411959
H        19.99889786710040    2.72553607926646    9.15919692194518
C        14.65157688833044    7.51252318362044    7.31269730413122
C        13.33525918847602    7.95680760790902    7.38074520811818
H        12.53659891423260    7.26742765972157    7.61224721624205
C        13.04347706092665    9.29243363583825    7.15610841974588
H        12.01936370912454    9.62946071832579    7.20998136724882
C        14.05456720399426   10.19260447003551    6.86688570868927
H        13.81982109246448   11.23072717712920    6.68902391347952
C        15.37194292599717    9.76065039501607    6.82069033278349
H        16.16456210833776   10.46298310901842    6.60967770097009
C        15.67079854199649    8.43211309314155    7.05452089859840
H        16.69984047914825    8.09080854463912    7.05614538016006
C        13.58569065227027    4.92965654561496    7.94559021660516
C        12.63719198053882    4.88948658640751    6.92582628262486
H        12.85265756111685    5.36797505463872    5.97971096185495
C        11.43822732929155    4.23268866681580    7.12778703586060
H        10.70250989767522    4.20283802742684    6.33871294188751
C        11.18391811218816    3.60510909233600    8.33713733554947
H        10.25028823854799    3.08556552226257    8.48762800446813
C        12.12673644610721    3.64019353883131    9.35145327277504
H        11.92783946844980    3.14736713865636   10.29133727805180
C        13.32306643587357    4.30554730204144    9.15764001322219
H        14.07550579406191    4.32471348834303    9.93638748157696
H        17.70809141901395    6.12849831800860    8.02345884010287

