60
CSD_code = IFUVEK | q = 0 | S = 0 | Stoichiometry = C21H27CoN6O5 | MND = 6
Co        3.44703052072601    1.15249302043079   16.10422645136932
N         1.97306181384629    0.15117589568628   15.62477337602151
C         1.46929044598336   -0.70159705648421   14.98358632231695
O         0.86942025053881   -1.52002508840976   14.39833141953136
N         4.52625921511140   -0.40259098638018   16.05657947393250
O         4.85222717557093   -1.04843380140693   17.11950118419731
H         3.87643306598168   -0.56608080937353   18.21284401959601
C         4.90525011915660   -0.76689857793858   14.86520447712454
C         5.68690007553067   -2.01224035085941   14.59861243456482
H         5.84020533013439   -2.53192939378052   15.54201750771997
H         6.65442949820363   -1.78305985240314   14.15325328630828
H         5.13963895986060   -2.66247036784830   13.91866878852338
N         3.92312472322481    1.21606499173047   14.27017720094844
O         3.55606318942808    2.19463305098992   13.40340186576168
H         3.00709017852967    2.85691176407834   13.98490228583234
C         4.52226785609367    0.15848617589102   13.82974368222351
C         4.82355691238060   -0.08812268495773   12.39152563431450
H         4.28373181103307   -0.97267867091233   12.05727697455522
H         5.88765824545273   -0.26450517775226   12.24539723479909
H         4.50783359390190    0.76607924267354   11.79865989636004
N         2.83102190958006    0.98173386426807   17.87957164115653
O         3.16166105099172   -0.02471579756125   18.72207339351935
C         1.89065667905996    1.80459324482339   18.20362463830385
C         1.12532407039617    1.73079647082547   19.47957213601352
H         0.08979597043718    1.47087839718494   19.26525159402839
H         1.13899277682087    2.69060748304759   19.99119839045573
H         1.55817813259893    0.96854842787349   20.12121746887608
N         2.36236707102765    2.69100743219483   16.14118851974248
O         2.34675862968243    3.54021644961862   15.17662741667250
C         1.64315181197859    2.82289221613690   17.21577085960056
C         0.66407574885424    3.93416616838826   17.41562038046207
H         0.90501714879390    4.50969213966243   18.30800493359421
H        -0.34212381090760    3.53346570268773   17.52467068470487
H         0.69369246474829    4.58452920956069   16.54410044873422
N         5.10204191051097    2.28042732035684   16.56664992912884
H         5.84863600974450    1.63194917931076   16.82133032814202
H         5.38001134299383    2.69353758702173   15.67424453650299
C         5.10953565149039    3.38178535865945   17.55206345566495
H         4.31147926380203    4.06348649639298   17.25185488099761
C         6.44627832521986    4.13069927761951   17.49834072800790
H         7.26732028352023    3.46640586901742   17.76276184306848
H         6.43690830494827    4.95414909787626   18.20757048094609
H         6.62448744497752    4.53693055146024   16.50381603147915
C         4.86684278192609    2.87824817267872   18.95770199806563
C         4.04286100493839    3.60421500985045   19.86267647737371
C         3.42064164958414    4.83257066526615   19.54629643626611
H         3.57514935246754    5.28730334822982   18.58052634773239
C         2.62343609233220    5.48099213349428   20.44931580503403
H         2.16107594932856    6.42044000143828   20.18290943767650
C         2.40017672263379    4.94135051095249   21.72362609257820
H         1.76257253826110    5.46355140721659   22.42117618378520
C         2.99912971190270    3.76472130154696   22.07226613154302
H         2.84706255447519    3.34047176300754   23.05418522581290
C         3.83391622542012    3.07577050899769   21.16721540427504
C         4.46326810202770    1.87261656094912   21.54568242408607
H         4.28514192991966    1.48283661487272   22.53688714786920
C         5.28481541143537    1.22046344602763   20.67494819570036
H         5.77494859395795    0.30229321220026   20.95842404274241
C         5.48644904024611    1.73053207893321   19.38630964675945
H         6.13827116721395    1.17102979492473   18.73114476691956

