33
CSD_code = IFUWEL | q = 0 | S = 0 | Stoichiometry = C11H18NO2Rh | MND = 8
Rh        1.24262423852692    1.76236909395549    2.62496191892167
O         1.66440177057409    0.03559406798692    3.77084070337887
O         2.94406525499977   -0.76284789256959    5.38825164547248
N         2.98010742274347    2.43164481858293    3.86851533496786
H         3.62655964093011    3.04156916419167    3.36153105301119
C         2.69145112399547    0.04268405408237    4.51420512634158
C         3.71958938653834    1.20137549838630    4.22611762370892
H         4.32217597993011    0.86087532037899    3.37852693504983
C         4.56745231425923    1.53840580313798    5.46190822632704
H         4.36617514685155    0.78398650821636    6.22470971544010
H         5.63430596318669    1.52334043078766    5.24322310308230
C         4.09219921037496    2.93114894710565    5.89532496453651
H         4.78710714827282    3.70245839234658    5.55426457492557
H         3.98714129691503    3.02065902133593    6.97376865502669
C         2.75106834814189    3.07231096514854    5.17259085072077
H         1.98614602641417    2.50664875147645    5.70755759432181
H         2.42224441000178    4.10510578971946    5.04759466309296
C         2.67687122308845    1.48269439892512    0.99247048263750
H         3.60452183074372    1.97015123993572    1.27916053027766
H         2.82242611826202    0.52328681970045    0.50924335646146
C         1.59248822761101    2.27730707908881    0.58388819260641
H         0.87874867273314    1.89963819368166   -0.14256516691099
C         1.31024587052732    3.45773603414392    1.31071264347994
H         0.44445325693884    4.03840974298450    1.01270473041963
H         2.14106687176357    4.07858551377582    1.63918143915124
C        -0.32647220526881    2.04301810346725    4.16411465355186
H        -0.24396950456656    1.13220271992971    4.74727088529942
H        -0.44294391770907    2.95165150960637    4.74561723514555
C        -0.89143981651979    1.98557943007453    2.88905040417542
H        -1.36923334311794    2.86111482502346    2.45504615075949
C        -0.61093593479390    0.85191932109713    2.08736073972831
H        -1.00368199822718    0.82938780245597    1.07589647003018
H        -0.55436003412185   -0.12051146815705    2.56925456486184

