95
CSD_code = IGADUP | q = 0 | S = 0 | Stoichiometry = C36H55IrOP2 | MND = 4
Ir        9.63817976656724    9.94723301170395   11.74276022126331
P        11.25162850767719   11.32395242920613   10.75102806515515
P         7.89604341151141    8.47477714149982   12.31602623947279
O        11.65732922253076    7.72301493937554   12.02649119882462
C         6.33185491245944   11.68507859441832    8.22681588613683
H         6.35234530915268   12.69791372124234    7.82051521929473
H         5.28910627771658   11.38945898368702    8.35494167610008
H         6.80267487752019   11.00801193581659    7.51097164527364
C         7.01917932031195   11.64613938114354    9.50056180949104
C         7.60122744296824   11.60168398657212   10.55867417893624
C         8.31905286017727   11.53029269969344   11.77362204337465
C         8.00721231943139   12.46537250424250   12.71671922017827
C         8.65259802930066   12.56758779705144   14.02109105130888
C         9.48756625637675   11.56124591331395   14.51637442886713
H         9.64690020243660   10.67220099735127   13.90624347852228
C        10.10883295823686   11.67263147847086   15.74210661091944
H        10.74561102489922   10.87356540550755   16.09609566350310
C         9.91596676922956   12.80273725212245   16.52050174132714
H        10.39792624822596   12.89313833639976   17.48300468433127
C         9.10170400044514   13.81822766219298   16.04534464608890
H         8.95236109493713   14.70981418269798   16.63859672677490
C         8.48069158994803   13.70665832493178   14.81753305082332
H         7.86219941529037   14.51819499684957   14.46190890921848
C         6.93128531858145   13.45133967244523   12.44130639833279
C         7.03034729051677   14.36088924177469   11.39339573065883
H         7.92749150067295   14.38396228700899   10.79124076232492
C         5.99988818623464   15.24133821566886   11.12117320884336
H         6.09519595559544   15.94484097104238   10.30540885959259
C         4.84937406235354   15.22791242751534   11.89082877275731
H         4.04307740810218   15.91491435074053   11.67668488569932
C         4.74066027409519   14.33136436330954   12.94066812920899
H         3.84693751976864   14.31787450929821   13.54943779829705
C         5.77253409722527   13.45362153001320   13.21369028817089
H         5.68686247292743   12.75994181724688   14.03868946352937
C        11.55080702633079   10.86085223293770    8.96085253057853
H        12.23328990977547   11.59204058353648    8.51623438936655
C        12.96768894568794   11.11480831304636   11.47995292151275
H        13.19221216917230   10.06890112830497   11.23482629536495
C        10.88714794320260   13.16061586155464   10.59182220677434
H         9.81170691414126   13.15473009757812   10.37164117908922
C        10.20805411954342   10.90585284802450    8.23739739451593
H        10.33221178064557   10.67198654814336    7.18059595879069
H         9.73454132386764   11.88063154274116    8.32293666709002
H         9.53622897787751   10.17225392386568    8.68032619623336
C        12.15982922172584    9.47052762174892    8.81167141577096
H        11.57470724225019    8.74029392112318    9.36748949863273
H        13.18745593171406    9.43630092994752    9.16414044444148
H        12.15795272359015    9.17929044664495    7.76197734006941
C        14.07699913325802   11.98833679566926   10.90522086280171
H        13.95776293824017   13.02490781042099   11.20914056851449
H        14.10661633619299   11.93728090213807    9.81928888085663
H        15.03969942745659   11.64332383717849   11.28207645232715
C        12.93235906228962   11.20391108572452   13.00396904265890
H        13.86477964275756   10.82358035010205   13.41904583409575
H        12.11331103636037   10.60127078846100   13.39339293206654
H        12.80035056943549   12.22502217038908   13.34834967340100
C        11.07428463671290   13.85378645072073   11.93940454845148
H        12.12310748022522   14.07646334742702   12.12177968803080
H        10.69914092370637   13.23216518782809   12.74882334366857
H        10.52560973012340   14.79473703401276   11.95812029591480
C        11.58144253678278   13.95324458268248    9.48626694660823
H        11.27073830898878   14.99529525914074    9.56309078136008
H        11.30358378297419   13.60199908159983    8.49609908365073
H        12.66294187539780   13.92339515624661    9.57806801560434
C         8.38699506137966    7.17725200008933   13.58445220086806
H         9.14370870059771    6.59960243786715   13.03901561810198
C         7.39884341819411    7.37822999174963   10.87975203921013
H         6.54728587127696    6.76235612022866   11.18618072059694
C         6.23553819046611    9.20320697283090   12.82000195593422
H         6.15010065683197   10.07058911897542   12.15144330168753
C         7.29844370956706    6.21382741527038   14.04564624669394
H         7.75248758829901    5.40585287212095   14.61924891349862
H         6.77269098106625    5.76857600451219   13.20449760030438
H         6.57948196569056    6.71063654554112   14.69157013425913
C         9.10437686833301    7.79982892488813   14.78043583260367
H         8.44164837311155    8.41573069603256   15.38050184182239
H         9.93500803937783    8.41440392116889   14.43909293080296
H         9.50685492421452    7.01269995310115   15.41704702058739
C         6.98955421213559    8.27120423941713    9.71295651015195
H         7.84355891807063    8.86699922935489    9.39676506778492
H         6.19327741897942    8.95766256726041    9.98801306785659
H         6.65334590670201    7.66922011178889    8.86939662213466
C         8.53334012482171    6.46027720576346   10.43479552406956
H         8.26990750916577    5.98127979667991    9.49264324285736
H         8.73353744916955    5.67616619668523   11.16032166496390
H         9.44461618140697    7.03561422501468   10.28038946444077
C         6.30046806471264    9.73785086853674   14.24874004485622
H         5.44824546433739   10.38991303684553   14.43618306828594
H         7.20936933226657   10.31319254391446   14.40806409942250
H         6.26095686360133    8.92857456225732   14.97412096283918
C         4.98073051968074    8.35208112476156   12.63565318016414
H         5.01121169344511    7.44339014352216   13.22898224720275
H         4.81590309147686    8.08640738188773   11.59531011240090
H         4.11974299497874    8.93434870580655   12.96384499869770
C        10.86116235277935    8.55178818565073   11.83197968406053

