40
CSD_code = IGAFIF | q = 0 | S = 0 | Stoichiometry = C16H14N4O5Ru | MND = 6
Ru        0.55345523891606    3.58585141211863    2.81503341005969
O        -0.69564393037868    4.24773384241730    1.32256933742659
O         1.88228129238742    5.10369180264936    2.40134693333303
O        -0.81246203363680    4.98196853685391    4.86735526365199
O         1.50858675176287    2.65123714599188    1.38006402366641
O         2.78271058108546    1.11223739435728    0.58824746556953
N        -0.45184062392794    1.86354325299493    3.02191631622118
N         1.82519967063973    2.71474637066414    4.08534769200133
N        -0.26016997255917    4.43176027270222    4.00671171460511
N         2.19587952695942    1.55149641497053    1.55991305322412
C        -1.49724722468672    1.53056007330627    2.33930640800320
H        -1.89407707536584    0.52215781946438    2.48133461219647
C         1.20961633385420    1.61095692654062    4.78568585410992
H         0.62974203009611    2.01981890921215    5.62574698957370
H         1.96049358439315    0.91549732331974    5.17781768113934
C         0.26289843087505    0.88313569658804    3.81748854861252
H         0.86776559059197    0.26136394825061    3.14237622397259
H        -0.43464732353593    0.24053855955637    4.36734773801688
C         3.09055853467867    2.95684597945388    4.13880792397715
H         3.71170855368168    2.30066099271128    4.75309612031764
C         3.13230591154190    5.00636856787300    2.65676380044748
C         3.97822678678729    5.99641644354101    2.07944150158954
H         3.49151026293485    6.73509828917234    1.46137905354525
C         5.32808208168221    6.01077970560795    2.27740795031423
H         5.93177518759593    6.77485133442096    1.81002948970989
C         5.94219451473051    5.03727057072719    3.07855844687275
H         7.01043909645012    5.05340363236953    3.22676835331269
C         5.17260709766450    4.07267364614252    3.66110017439069
H         5.63566139750722    3.31602860294507    4.27916711355184
C         3.76864372742274    4.01433431797275    3.48401457149838
C        -1.74165458681398    3.62145126846549    0.93996098258446
C        -2.53566812202628    4.25586467499499   -0.05985106633904
H        -2.18493581547927    5.21587955242923   -0.40603481459157
C        -3.67344114575228    3.69174101185649   -0.55653093050743
H        -4.24538391783888    4.20933274903727   -1.31257492461571
C        -4.10753979494889    2.43886165633008   -0.09743579446922
H        -5.00700737706639    1.99820170953712   -0.49769759172453
C        -3.37499566793058    1.78665655613328    0.85042989077835
H        -3.69630371622605    0.81717751372031    1.20541333865814
C        -2.19102385606491    2.33490552260059    1.40377714531485

