108
CSD_code = IGALAD | q = 1 | S = 0 | Stoichiometry = C55H43N6OP2Ru(1+) | MND = 6
Ru        2.78520029224330    5.07921050801969    2.52921781211394
P         3.90294154983883    6.48229073209606    4.03380528097807
P         1.80428249767106    3.66527496288034    0.93080770191887
O         0.84657723693476    4.92062236853758    4.79865138489000
N         4.04819380145669    3.54398439090675    3.03831662132674
N         6.29092396200256    2.87168594903378    2.68272665884772
N         4.95195373771763    1.71036467493887    4.19794154722236
N         4.27877849881801    5.38687395682602    1.16509081384901
N         1.54906534829569    2.41151091849955    3.77304544378317
N         8.46150742331404    1.49929211371256    3.52832995170756
C         1.54726155821611    4.87386729267121    3.88990651613838
C         3.94342888571981    2.49315899574192    3.87172003717682
C         6.12949935504279    1.94360340574999    3.61993578404943
C         5.25431451938873    3.64251652444669    2.44096438392269
C         5.39091469816273    4.67637824933559    1.42358630176302
C         6.58851966216433    4.85559587555345    0.73717980632752
C         6.63659833754816    5.79029674896385   -0.27930450171163
C         5.47345664269796    6.48622955680872   -0.58492759417641
C         4.32830642727560    6.25823078599686    0.15724544887588
C         2.65197134329146    2.13181819546912    4.46712707121046
C         2.63107317369453    1.46470530250586    5.69039680822578
C         1.40920797836250    1.08185395339616    6.21385540891936
C         0.26169140674962    1.36027830281440    5.48725304394391
C         0.38826173276478    2.02068525702278    4.27408991328821
C         7.27802432209273    1.14185281580934    4.02424369965088
C         7.11662628548912    0.06849128220579    4.90191180891346
C         8.23886613804007   -0.65381081832555    5.26963943015233
C         9.47017317653175   -0.28220180627760    4.75238884864065
C         9.52048214048833    0.80398544144153    3.88383028992260
C         4.96811440432372    7.81603119994049    3.39425890707443
C         6.13594271330586    8.23702813518136    4.02275804441686
C         6.84093385176679    9.31161242688201    3.51038150060016
C         6.38195406949890    9.98123904959344    2.38770150744423
C         5.19631861754627    9.59167597776151    1.78589611699761
C         4.48843282710149    8.51753797964827    2.29136742017493
C         4.96280419856023    5.46149486410930    5.10170248427260
C         6.28186482383140    5.16451442283656    4.76645740195983
C         7.00146792930136    4.25333814919449    5.52069880486477
C         6.40745689880887    3.62137440264121    6.60041744717368
C         5.08680440338982    3.89432966811195    6.92405550305027
C         4.36203604420904    4.79989317806013    6.17271929618209
C         2.93659857938307    7.47614164307275    5.21161502133060
C         3.50325182000966    7.89597538174967    6.41270269025506
C         2.78636270270360    8.72017413171795    7.25939757694961
C         1.51289344707002    9.14073179766519    6.90899958845180
C         0.95588435891075    8.74028618917956    5.70566518776593
C         1.66576450631569    7.91317122032004    4.85369691410271
C         2.85878519302393    2.20267087913052    0.69074332780195
C         4.04490501222879    2.36467019642991   -0.02806633619380
C         4.98981575597331    1.35581778267990   -0.05980034269633
C         4.76597285927355    0.17566049140786    0.63099118955646
C         3.58253136697669   -0.00101307474223    1.32946060402860
C         2.63383475315581    1.00608892617423    1.36431185662743
C         0.09355287850286    3.08973966461812    1.10221791743680
C        -0.79975626955915    3.91690021656005    1.77473623939752
C        -2.14070335722090    3.58087417001066    1.83638817278590
C        -2.59150271217644    2.42072016795304    1.22622935586933
C        -1.70449790976567    1.60580480753940    0.54029784449247
C        -0.36469225447683    1.94185983881749    0.46440982391049
C         1.61567350082765    4.31529964507102   -0.77014785882951
C         1.14304091266299    5.61664883695196   -0.91421925222449
C         0.88417898434383    6.13197468954074   -2.17081514777141
C         1.08585695988081    5.34759326461318   -3.29502564449229
C         1.53098120879266    4.04340988455772   -3.15576873541425
C         1.78756122179253    3.52182722278201   -1.90009676603186
H         1.98166674484998    6.27831719132632    2.02103770909828
H         7.43399728052227    4.24954993390411    1.02096627698591
H         7.54761156913904    5.96302429779151   -0.82981496810559
H         5.45094601067677    7.20388482177785   -1.38893625139251
H         3.41178592292169    6.78370179377542   -0.07295843166692
H         3.56052699163733    1.26931631712527    6.19937416027085
H         1.35260377572245    0.57313366259361    7.16432576270969
H        -0.71240588411082    1.07397381482663    5.84966340126970
H        -0.48102051320492    2.25446758273875    3.67560738223014
H         6.13228462557395   -0.17571042491976    5.26665385844609
H         8.15532946807674   -1.49111141998374    5.94661492047593
H        10.36929641306311   -0.81720106453475    5.01347033012144
H        10.45826638526909    1.13245888890953    3.45582231385381
H         6.49222532988286    7.73851452333563    4.91240043138161
H         7.74968158688540    9.63281773062043    3.99681053705103
H         6.93948989610750   10.81713491671633    1.99384474743423
H         4.82036914482894   10.13110905228513    0.92952491877590
H         3.54318580029434    8.22157495028352    1.85563754562924
H         6.74730535846911    5.63984367217972    3.91217096943190
H         8.02243551235610    4.02782204634940    5.25151488628899
H         6.97136597495611    2.90932157630410    7.18379773978113
H         4.61998801884170    3.39771351152902    7.76161493954981
H         3.32535863593139    5.00632529030506    6.41034117787985
H         4.49763637891758    7.57085368685488    6.68647311253613
H         3.22356564148430    9.03799577427734    8.19397910294178
H         0.95708268968243    9.78379497298936    7.57410323220352
H        -0.03333142200049    9.07285184158216    5.43010160404828
H         1.24057876377954    7.59477553397507    3.90961039519719
H         4.21683442690852    3.28102726743038   -0.58155012827547
H         5.90550192981280    1.49430324999901   -0.61497329981989
H         5.51062213278893   -0.60546426388972    0.61956096007641
H         3.39984671326935   -0.92518364196543    1.85750630512711
H         1.71732684927138    0.87031090601326    1.91894698639160
H        -0.42586318794663    4.81763831019314    2.24845320579059
H        -2.83408143468229    4.22172294699500    2.36003815613759
H        -3.63628637182845    2.15470482395239    1.27773318301269
H        -2.06022580965256    0.70951725957700    0.05463707792823
H         0.32005466223529    1.31600243278199   -0.09019635459545
H         0.97213194835465    6.21374329078312   -0.02671980838320
H         0.51860599307543    7.14270921480794   -2.27446691052176
H         0.88593111270139    5.74752644589553   -4.27726994779205
H         1.67205747288287    3.42433046224948   -4.02904664825072
H         2.12099102937875    2.49811345600282   -1.80501796556646

