57
CSD_code = IGANAF | q = 1 | S = 0 | Stoichiometry = C22H28MnN4O2(1+) | MND = 6
Mn        1.94375097813551   12.05850332271606    7.93125334357518
O         1.16323604323557   13.71262181122537    7.99655082598738
N         0.67690031501428   11.39467104466436    9.51452431423027
H        -0.04931981141441   12.10710796923722    9.63474911802159
C         0.63934151706847   14.39703142249853    7.02205583100992
N         0.56808781764183   11.52989316622413    6.67083993117661
C         0.56290575363337   15.80421407880838    7.10079383879271
H         0.96690514958911   16.28833162758854    7.97821679253691
C         0.00830413909944   10.10228190917377    9.33173170713821
H        -0.63618522749895    9.87825929162434   10.19334839807205
H         0.78355698584737    9.33336038074315    9.27293665300390
C        -0.49834939897709   14.54060101894161    4.86368953951391
H        -0.92842272196366   14.04420154841450    4.00628436620436
C        -0.82993588073096   10.06884112370437    8.05456930464439
H        -1.56871291202700   10.87551398043724    8.07242719254195
H        -1.36704855676825    9.12033655874632    8.02106299170812
C         0.08378078396501   13.75642936737557    5.87262990074861
C        -0.51524094034504   15.91040992122187    4.95167907876712
H        -0.94739154407501   16.50190405942332    4.16056669838752
C        -0.03119071010342   12.33609370663970    5.85036700614620
H        -0.75788939785137   11.92948122042259    5.14439390222783
C         0.01432338168004   16.54099197245266    6.08047728014231
H        -0.01275824586205   17.61739027280608    6.15293350906796
C         0.01401539391087   10.19066428840646    6.77315769712918
H         0.81950345016027    9.45354029561486    6.79643510534002
H        -0.62681306659852    9.97674510735248    5.90922967184381
C         1.52697527044890   11.41967679788405   10.70917632824125
H         2.19073234929278   10.55088937909813   10.66665005113980
H         0.93202891538072   11.35693464128860   11.62979637232375
O         2.72426532511055   10.40438546338587    7.99655532959245
C         3.24816083379918    9.71997392019516    7.02206252572268
C         3.32459522586450    8.31279154759295    7.10080433232622
H         2.92059500565426    7.82867711133308    7.97822865923353
C         3.87317639929899    7.57601073962491    6.08048931909989
C         4.40274105857349    8.20659016902492    4.95168985394295
C         4.38585222193917    9.57639903478205    4.86369761763512
H         4.81592663138999   10.07279571326590    4.00629142342408
C         3.80372341598645   10.36057375624219    5.87263628316625
C         3.91869735681343   11.78090938920139    5.85037294104521
N         3.31941725294982   12.58711116002286    6.67084375234829
C         2.36053482841609   12.69731306606509   10.70917989552958
N         3.21060413467065   12.72232759092430    9.51452421211337
H         3.93682308839406   12.00988783643553    9.63474023904078
C         3.87920400241289   14.01471563031612    9.33173853779490
H         4.52369505613429   14.23873130663032   10.19335584807676
H         3.10395383086804   14.78364022624593    9.27294821640178
C         4.71744343396893   14.04815889566252    8.05457570737401
H         5.45621982383161   13.24148535307057    8.07243153943834
H         5.25455700904007   14.99666301638291    8.02107137244882
C         3.87349128083080   13.92633928442310    6.77316420244075
H         3.06800383275845   14.66346390354502    6.79644423805813
H         4.51431932922115   14.14025994740028    5.90923625466174
H         1.69677837449837   13.56610141488410   10.66666453483796
H         2.95548580969479   12.76004639369675   11.62979762828174
H         4.64539897160223   12.18752060844691    5.14440218151264
H         4.83489014398743    7.61509364477288    4.16057846561622
H         3.90025649240233    6.49961259169284    6.15294813917325

