54
CSD_code = IGATOZ | q = 1 | S = 0 | Stoichiometry = C26H26NiP(1+) | MND = 8
Ni        3.55464239962150    0.71451149270369    8.44671445044528
P         1.85946346902850    1.80345220427999    9.19420519960082
C         5.26453802582104    0.47595742212823    7.12774480838633
H         6.30808651539352    0.28581320051154    7.32279453341466
C         4.29397888416940   -0.55140157617430    6.80302029252524
H         4.51814191278603   -1.60333510101332    6.73180815747652
C         3.10890353402366    0.06580380723908    6.44618657972651
H         2.23283326759283   -0.40576132809010    6.03417024781288
C         3.30326090014361    1.48987732963883    6.60345799135041
H         2.61693791437825    2.24482956356964    6.24562416532236
C         4.67767900133705    1.72110687083268    6.93300406553356
H         5.16796191589069    2.67946822066229    6.94977446582128
C         1.68932438519477    1.35091136212349   11.00551088871899
H         0.81872449080023    1.88652345222923   11.39445399481978
C         2.92552032489764    1.68422194369553   11.77054003518130
H         2.81303643707784    2.28481156801068   12.66087370243253
C         4.14262661595634    1.26593141725914   11.39616753865545
H         5.00272589010324    1.60810460133145   11.95595553234964
C         4.43458644895702    0.35480965503909   10.31085497857528
H         5.49925183872173    0.23759514738670   10.09626114383829
C         3.59516511505238   -0.72481595072943    9.95206571537392
H         4.08004673571556   -1.58996497590203    9.49518208934291
C         2.34406892511481   -1.02049970472826   10.61137415504962
H         2.10108091162648   -2.07135326813482   10.69331809986617
C         1.50282331451288   -0.12340156931778   11.14675068788356
H         0.64733226812535   -0.46068082664237   11.71315201788030
C         0.16092552527857    1.31931759561029    8.56331479876684
H         0.20255008820022    0.22386354841639    8.64924500393636
C        -0.94774770923183    1.81740443638291    9.44096532442740
H        -1.38968831777955    1.06864418870395   10.08481250266803
C        -1.44212708398065    3.05994714432706    9.47697886543679
H        -2.22300875613189    3.26221175121987   10.19950281922002
C        -1.09649019283570    4.17528913398835    8.64023754356201
H        -1.36147072590972    5.14908761439550    9.02698938210047
C        -0.61942527520107    4.09627305564301    7.38233155771006
H        -0.51522907107098    5.01238648765009    6.81632703247870
C        -0.37908360065596    2.88344521016189    6.64845635659469
H        -0.48242013172441    2.97904732104152    5.57447110387482
C        -0.09146151638806    1.66904639860931    7.13178231420929
H        -0.04515647192910    0.84075352538220    6.43819607544953
C         2.10220410154135    3.62554726423476    9.10829755608502
H         1.71495056500258    3.95347928079698    8.13169030648926
C         1.48013892995713    4.46264492052757   10.18276304739675
H         1.14121049615698    3.99897863298966   11.09496032072617
C         1.36856150598897    5.78508331965755   10.00622640191179
H         0.83881614296419    6.37146584365279   10.74489342355246
C         1.94163325156186    6.51915607598298    8.91404613476319
H         1.44728811696584    7.44241312109389    8.64430026370244
C         3.13422874080264    6.23670158514771    8.34369681142163
H         3.54934248362575    6.94274402968615    7.63758259581390
C         3.99335039606110    5.15797176433067    8.74381651853722
H         5.05574745376586    5.35846243057305    8.70705389146675
C         3.56354453496508    3.96811680723973    9.18077321150504
H         4.25087507795851    3.23050255464501    9.58282329880958

