49
CSD_code = IGATUF | q = 0 | S = 0 | Stoichiometry = C12H28N2O6Zn | MND = 6
Zn        1.57735822506305    5.22404375023490   13.82151236589245
O         2.91307150861829    3.46427941399699   14.42862223519234
H         3.60937555961980    4.10327273226563   14.63406733583388
H         3.24449468529509    2.91544150757535   13.71409721203972
N         2.13978798960828    5.36693229722145   11.81216423654743
H         3.13638327581512    5.47804898247512   11.64883416776991
H         1.81440224407353    4.58773699834749   11.24332267556137
O        -0.00146810282406    6.13952958463049   13.21328938183436
C         0.05010295703004    6.67367232908519   12.05232240110411
O        -0.87091515757855    7.22991418439516   11.49377856172466
C         1.44513889034521    6.58335715131452   11.35460049832341
H         2.00467307272068    7.44271589945266   11.74309170936926
C         1.32620248429311    6.69524239814719    9.82913576766398
H         0.68977936303349    7.56569869420537    9.64520067117776
C         0.62305012335289    5.46921485181077    9.22863495353369
H        -0.20038736664408    5.18344008753691    9.88655535782035
H         1.32027756456152    4.62783038773015    9.15663206487287
C         0.05092438784136    5.74759320797654    7.84324989972093
H        -0.65956769261369    6.56862348512643    7.89258939038084
H        -0.46602585128259    4.86796569762563    7.46534131207611
H         0.83629474248128    6.00866047358573    7.13791064489633
C         2.69397520685260    6.93155794301257    9.19049605418440
H         3.33957377485191    6.06171777816652    9.30882623704052
H         3.18406900304821    7.79013498335287    9.64393032789019
H         2.59006032087242    7.12811718496961    8.12713797955315
O         0.24256058895725    3.46346118524298   13.21321214591991
H        -0.45408678169325    4.10213997301553   13.00840585369744
H        -0.08817187432300    2.91402625181056   13.92736899540910
N         1.01487516705169    5.36684853642705   15.83099684848372
H         0.01818616130807    5.47828806844998   15.99346847964679
H         1.33959403854067    4.58772723687898   16.40030414804293
C         1.70944663967610    6.58325494693196   16.28873506993023
C         3.10467422418802    6.67325170809838   15.59137932628235
O         3.15629897632374    6.13942463120024   14.43027928826194
O         4.02579002721553    7.22892106592706   16.15030829245664
H         1.15016028721042    7.44263246248867   15.89992375587988
C         1.82782261905702    6.69535752414737   17.81423319093387
H         2.46428080049778    7.56576115862920   17.99827701661835
C         2.53060057242263    5.46939991723715   18.41528877396278
H         3.35430672775678    5.18350588506696   17.75783391009957
H         1.83334125880615    4.62808324863507   18.48707383552932
C         3.10211906032318    5.74792671548113   19.80087609108039
H         3.81285251615820    6.56872429396113   19.75166249725183
H         3.61862980495049    4.86826841433722   20.17928039850088
H         2.31648639803160    6.00939460782511   20.50572456831505
C         0.45983581523487    6.93197520873690   18.45229680069359
H        -0.18576161672724    6.06210655854868   18.33408489079938
H        -0.03005766174321    7.79040037999411   17.99833160305507
H         0.56338504234278    7.12897801667426   19.51561077715169

