70
CSD_code = IGAVUK | q = 0 | S = 0 | Stoichiometry = C22H42Cl2NP2V | MND = 5
V         3.18911872224113    2.79401670689045    4.05872032780304
Cl        4.07677706840290    0.70319846617184    4.24639888070646
Cl        2.04316394004587    2.81337044360770    5.70862974758170
P         1.63149814822789    2.00106407578532    2.48223268935727
P         5.26155138283471    3.89293802246846    4.56067278743240
N         3.09961859769601    4.26523317896676    2.82769832318713
C         0.85548190066196    3.61580029612708    2.05529569827421
H         0.30988725835385    3.61575983639954    1.10926591762668
H         0.16508459857330    3.87487034265496    2.86456255394481
C         2.01016268111923    4.56089518261949    2.04874747912047
C         2.22871449965242    5.72307779408551    1.35412080164129
H         1.55140078550487    6.20569175566373    0.67428465277282
C         3.52572448478211    6.16576905690945    1.70848054826906
H         4.02250879218280    7.04538421226356    1.34338708672982
C         4.02322434540660    5.24918035667871    2.60110058370747
C         5.38362371485534    5.13723976171960    3.20535949780558
H         5.75222932614992    6.10368551178310    3.56021333594498
H         6.08601901526186    4.76619213130872    2.44948771413563
C         2.44795486971197    1.41015993399541    0.87521120836066
C         2.77901676432441   -0.07854987503931    0.99938067915764
H         1.88977655895770   -0.70099383967628    0.94954046159735
H         3.43592497457116   -0.37688601577596    0.18235165161726
H         3.30095592321597   -0.26486228787257    1.93800489494667
C         1.63490004534990    1.68914276737641   -0.38884507809147
H         0.65119147248886    1.23156806046587   -0.36047978964961
H         1.52344919262009    2.75922521471997   -0.55046229254440
H         2.16845142415343    1.28060639100603   -1.24689741281771
C         3.77887729068584    2.16531163212932    0.76976647316871
H         4.35629280849424    2.04634033154531    1.69164666012983
H         4.36454370732037    1.75950285135257   -0.05563574806055
H         3.62249370995413    3.22629872905762    0.58065737882360
C         0.16814021550756    0.89010604146487    2.96840432450668
C         0.73381499066164   -0.29369870174920    3.75418214562119
H         1.38308693601943   -0.91444337770154    3.14425013879762
H         1.31351531233644    0.06643639761599    4.60478836045471
H        -0.07756066666776   -0.91604234000998    4.13112982535140
C        -0.67902785123899    0.41330767808209    1.78986878712168
H        -1.02840677936848    1.25607112412469    1.19560964121796
H        -0.13885811388025   -0.27746486208705    1.14921567893657
H        -1.55522549216043   -0.10984717750237    2.17320156373715
C        -0.73634870023579    1.69645807092390    3.90737693005860
H        -1.35841295322221    2.40055651119359    3.35801317423127
H        -1.39908081876681    1.01697637838512    4.44252105408755
H        -0.15033996802195    2.23974605609615    4.64854003338461
C         6.97174842225909    3.07047231070328    4.49582117178096
C         8.15503209415746    4.03566481959827    4.41176293315713
H         8.02778705211868    4.76536021727552    3.61556962703628
H         8.31911124473419    4.56484351818402    5.34409731719595
H         9.05760774497773    3.46401367897300    4.19613409898891
C         6.95530887234444    2.20322544316992    3.23067828954284
H         6.81804321159816    2.79838955516529    2.32773011614626
H         7.90273914887398    1.67354039221876    3.13738874648392
H         6.16072607439604    1.46088192612707    3.29249692957338
C         7.11614336509741    2.14808758723050    5.70567166494036
H         6.20555031051603    1.56457512002968    5.84247264858785
H         7.94165763147353    1.45494315647050    5.54941753434941
H         7.32117648259170    2.71107422189009    6.61301383849774
C         5.07808656576207    4.98967563323362    6.09772976187437
C         3.83654016289043    5.84854154571161    5.82546427656105
H         4.00807625154108    6.55618692957331    5.01690322508811
H         2.97985110773355    5.22706232059944    5.55947404188810
H         3.57784387949105    6.41579204333723    6.71953525731759
C         6.26254833227691    5.91145132781201    6.38790260779957
H         6.60133952585192    6.43951045101583    5.49950915449149
H         5.95807605336186    6.65780799559367    7.12152509464265
H         7.09859793123530    5.36124094328558    6.81131469617813
C         4.81738418739898    4.10623846195455    7.32047284732713
H         5.72816424695447    3.62673751147784    7.66897216236670
H         4.42396256230102    4.71036407615001    8.13782853858256
H         4.09038342330493    3.32752598899944    7.09161404941615

