88
CSD_code = IGAVIV | q = 0 | S = 0 | Stoichiometry = C38H36BN9O3Zn | MND = 5
Zn        4.38590872734993    5.68437425298964    9.75012482707922
N         5.44824259744134    4.99130820610726   11.30206764360646
N         4.80321752982104    7.65874859560489    9.98508617253967
N         2.74883789030345    6.20158622004220   11.02903145998640
N         5.46319340610920    5.77048367408503   12.39579253319607
N         5.07623364746200    7.97884475927438   11.26122689307305
N         3.17492529166025    6.68934204502827   12.20310408504732
N         3.10667577475548    4.11826576194931    8.97256399531890
H         2.64773095748854    3.52672138223954    9.65855587393925
H         2.36412443912986    4.57558548438336    8.44803199645635
N         5.43272202487448    5.18275244268815    8.12044739697165
N         9.48912879185670    8.66048977923953    6.50760133947794
O         5.55114298684289    3.67034080230154    6.38664670251601
O         9.65351095122561    8.86442518509671    5.31671936142829
O        10.10907082057986    9.24180762928932    7.38420276015737
B         4.64859010783112    7.07277036642744   12.42344793250331
H         4.78534728450387    7.62623193690461   13.45363350213847
C         6.17844225145865    5.18104879042515   13.36875417686309
C         6.63925418262335    3.97140605639363   12.87765859302349
H         7.24665174062214    3.25016981322345   13.38479009763814
C         6.15971943974675    3.89687561038878   11.56862076431032
C         6.40421189286643    5.77241895294775   14.71280160656905
H         6.88544616517542    6.74478258151519   14.62905360309156
H         7.04063025775605    5.11327764144943   15.29673825501358
H         5.46092407049692    5.90772556116088   15.23885933179417
C         6.37162898399094    2.82242060597167   10.59212739540531
C         5.77096895415511    1.58228030957996   10.78607246216166
H         5.14405803309204    1.42386865197148   11.65262863118513
C         5.96878932368538    0.56296885930429    9.87106603401255
H         5.49526611595238   -0.39611826368658   10.02479397681501
C         6.76961685341353    0.77238887151631    8.76000555910852
H         6.91665423440428   -0.02127851616981    8.04323944301668
C         7.38448295616541    1.99881687831924    8.57259604612807
H         8.00867405221225    2.16582463793553    7.70895949971373
C         7.19145580475931    3.01941135353454    9.48613621274358
H         7.68392725435063    3.96869763073834    9.34634762356778
C         5.63442881619406    9.20291962805424   11.31637591714181
C         5.72005722996829    9.68580712735562   10.02526155909565
H         6.10371271781299   10.63725938439393    9.72081372283697
C         5.17798747683919    8.68221445479422    9.21300906714127
C         6.07494373295079    9.86437190752559   12.57181521701908
H         6.78244341395763    9.23568938338656   13.10890039203951
H         5.22692379316417   10.05697227225263   13.22662784166950
H         6.55436065767395   10.80938130795730   12.33237747799541
C         5.00162703045055    8.69715576083436    7.76878036444973
C         5.79387023415244    9.52068242920778    6.97081804257537
H         6.55098204575877   10.13955517335484    7.42737925399998
C         5.63309070642416    9.53047343841419    5.59838760640079
H         6.26198672494190   10.16262964369498    4.98967092504835
C         4.67713283035058    8.72447944106048    5.00323257914685
H         4.55640527444266    8.72987450413324    3.93047829194827
C         3.87763935666015    7.91027233445495    5.78878311992054
H         3.12966693354001    7.28160354182720    5.32764723056121
C         4.03614078340637    7.89835507876637    7.16032513274150
H         3.41044913163930    7.26840949540309    7.77693138670976
C         2.14807140181955    6.79272472656126   13.06554948625519
C         1.01003031659038    6.34997514186315   12.41746911016002
H         0.01194964813186    6.31262610226004   12.80340202700771
C         1.43364490736697    6.00007139661536   11.13172391108126
C         2.26999356939853    7.29567290962317   14.45807502748659
H         2.63915316588423    8.31926485499874   14.46705825079336
H         2.96162469279236    6.68097034643072   15.03078796912475
H         1.29619371985991    7.26947534794568   14.93883244301335
C         0.58766098202826    5.54731833131236   10.03057537241988
C        -0.35490480417980    4.54213979411224   10.23030891340981
H        -0.44305417632594    4.08276627905638   11.20405122501167
C        -1.16575848745051    4.12839580696904    9.18873673593948
H        -1.89204973945511    3.34597721181283    9.35197457165655
C        -1.05099687023647    4.71607530144210    7.93946146289869
H        -1.68641674346815    4.39230825202582    7.12901273211246
C        -0.12759698343077    5.72918441077234    7.73622905048274
H        -0.04707278082531    6.20184403518870    6.76848288538039
C         0.68650103386341    6.14479644962275    8.77468130192984
H         1.38621895228982    6.95510991756550    8.63251475833291
C         3.91470931315950    3.31070940903022    8.06336895191152
H         3.32301001034238    2.85492039467518    7.26127404608640
H         4.39745167116130    2.50585800022444    8.62244904839338
C         5.05314171799687    4.10892491778953    7.41030617094269
C         6.47746260337826    5.96532867422142    7.67544210779394
C         7.29951759291135    6.58910380191040    8.62912316298887
H         7.13496346204422    6.37970255391918    9.67576768091802
C         8.29528882601313    7.45415779478423    8.25342297024228
H         8.91986067671377    7.94492931137693    8.98462781967368
C         8.50617012915809    7.71420195940404    6.89933680601360
C         7.73679082512239    7.06503131113476    5.93440200370090
H         7.92742210371626    7.26890597327881    4.89196502311658
C         6.74251211601054    6.19882881819684    6.31575796584906
H         6.14445246124032    5.70452960681194    5.56978009176045

