110
CSD_code = IGAVER | q = 0 | S = 0 | Stoichiometry = C46H49BN8O5Zn | MND = 5
Zn        7.13039218760255   -1.88823305552394  -13.18049312093826
N         6.75150740127285   -0.56758584944310  -11.68464494036820
N         6.08618521745865   -0.72358393954633  -14.38601368392477
N         5.69401323882371   -3.03796462165520  -12.48626815306173
N         5.43024926106617   -0.37311925049086  -11.53066758394417
N         4.84018183800529   -0.48196060861933  -13.95902869451034
N         4.48929184834928   -2.45280281811544  -12.47857979633075
N        11.16895093249648   -3.56800029759815  -14.46479543923020
H        11.40302697516216   -2.57992362610529  -14.46518675469419
N        14.04662255619648   -3.09413497274338  -14.14997050939766
H        14.96903487770118   -3.46685450631787  -14.30853756770621
O         9.02801939855345   -2.41315930468500  -13.33181229520649
O         7.60219216875215   -3.26394509969704  -14.74461200856055
O        11.73586894960041   -5.61281890147198  -13.67502463514836
O        12.78054108170560   -1.26702275270893  -14.66349485786440
O        14.91835305180922   -1.52426618186611  -15.40081483614832
B         4.41074651905206   -0.91633980813461  -12.54676196148571
H         3.32315058150476   -0.53285689313857  -12.30272953843013
C         5.19784961689407    0.27252432919610  -10.37286662569267
C         6.41661742114612    0.49706168252025   -9.76115088858694
H         6.59302230054802    1.00207715502887   -8.83355478811350
C         7.37233119378698   -0.04627261440556  -10.62750671572900
C         3.84492606631848    0.64780628774137   -9.88526852698951
H         3.34028862945091    1.28959912552224  -10.60472206247601
H         3.93431099999865    1.17823862636010   -8.94115917415511
H         3.23243363036725   -0.23934690774507   -9.73457896471747
C         8.82258837779219   -0.03874693701516  -10.48462981194311
C         9.40861619936677   -0.20497920164601   -9.23208432098131
H         8.78202538377812   -0.37719195347743   -8.36898898577967
C        10.78375299793193   -0.16763053710313   -9.09598598573076
H        11.23204553294843   -0.30345697741553   -8.12228447233142
C        11.58885622164991    0.04464654356228  -10.20271379890036
H        12.66274018175174    0.07419827667103  -10.09049968600008
C        11.01134747642883    0.21553887957868  -11.45052612926925
H        11.63089249051335    0.38843835844028  -12.31813802432367
C         9.63794101396224    0.17374974592130  -11.59232561409930
H         9.18416393074510    0.32644749964614  -12.55849417704504
C         4.12536202042627    0.08508064871262  -14.94808928216544
C         4.94962298136073    0.20054129377527  -16.05328945327295
H         4.69892465704310    0.62181777583480  -17.00540652082791
C         6.18381593125432   -0.32337353512274  -15.65254940941847
C         2.70358425771728    0.49653885711922  -14.81265429004684
H         2.36472678591802    0.94623649692566  -15.74190716841686
H         2.58861348945834    1.21962730289365  -14.00733721202065
H         2.07430165627745   -0.36212960709579  -14.58661615063037
C         7.42898875715116   -0.47169689265464  -16.39336454986883
C         8.64971767885615   -0.35112395983226  -15.73402226965325
H         8.66256712235537   -0.08321113338794  -14.68799366263181
C         9.83707403192788   -0.56167227436649  -16.40827545822796
H        10.77230473074833   -0.48908246271100  -15.87332928535118
C         9.81982264297441   -0.87373895882885  -17.75817549362296
H        10.74583138003708   -1.04317483067768  -18.28883633179591
C         8.61115938078919   -0.96639495710133  -18.42910120915922
H         8.59649795193870   -1.20474041525172  -19.48300201481893
C         7.42117411033369   -0.76990020722943  -17.75333156304116
H         6.47927062040368   -0.87026781072157  -18.27195878503903
C         3.53074306217358   -3.39286635473516  -12.40214276511888
C         4.15265232481058   -4.62899848693324  -12.36724729129275
H         3.68130189721085   -5.58784717528967  -12.29425852188718
C         5.52423976547701   -4.35688473633169  -12.42104843473891
C         2.07656031308343   -3.08642078694601  -12.37698152219617
H         1.84144226843982   -2.39268636388101  -11.57207912757929
H         1.51251548430343   -4.00348504461503  -12.23103347409790
H         1.76732640114918   -2.63078404893443  -13.31654943890400
C         6.67462797736463   -5.24962788770086  -12.41846637116746
C         7.85546208888572   -4.85682873836385  -11.79024836366582
H         7.89013884055718   -3.91842691922507  -11.25301020400943
C         8.97363914658091   -5.66637855754152  -11.84559395705727
H         9.89125343474457   -5.35114658922675  -11.37266546562129
C         8.92828976987746   -6.87548131851263  -12.51995492056173
H         9.81516112051827   -7.48650528132701  -12.58244529453492
C         7.75040709347523   -7.28139204452816  -13.12546460075450
H         7.71001521975845   -8.22543876542514  -13.64964441076758
C         6.62721190218367   -6.47652625907966  -13.07409324485024
H         5.71540114133481   -6.78126460492663  -13.56645822201903
C         8.75485628137292   -3.15818101607812  -14.30617998797946
C         9.87886797685519   -3.94138188093472  -14.97465603854977
H         9.72653234588471   -5.00649721963883  -14.77464789409689
H         9.81529481515759   -3.77104917190410  -16.05472824822295
C        11.95426331891762   -4.42350532849434  -13.80149177032381
C        13.21148676252001   -3.78323648592668  -13.17918563933197
H        13.81358539011603   -4.60920944709289  -12.78765503732610
C        12.79911485354739   -2.87003013588076  -12.00714515388388
H        12.19275605838957   -2.04727743187051  -12.38289277761033
H        12.18617095294241   -3.45978899554018  -11.32375282498812
C        14.01911931815476   -2.35097667172658  -11.30312707428860
C        14.56706185085153   -1.12103581470675  -11.64609215018070
H        14.08117399740647   -0.51388678787498  -12.39472337264109
C        15.71907741653397   -0.66457994259947  -11.03013816009693
H        16.13214855077546    0.29603515655242  -11.30359340941133
C        16.33972502163193   -1.43350077040279  -10.06067647256066
H        17.23780684032445   -1.07716988572928   -9.57785161159224
C        15.80091639913986   -2.66002878955148   -9.71027127852212
H        16.27881476498137   -3.26268637815315   -8.95160193046895
C        14.65092025981843   -3.11546178599122  -10.32982977340264
H        14.23256259005664   -4.07282793523635  -10.05307352556109
C        13.81756615991792   -1.89588499069177  -14.72817574463850
C        14.95328891427734   -0.28845480129445  -16.15633456152603
C        16.37100775265338   -0.24913673848776  -16.72794135664497
H        17.09814027406549   -0.25804635554735  -15.92035287494997
H        16.50803408820688    0.65049252304406  -17.32026848868349
H        16.54323476731113   -1.11857850602209  -17.35664958988811
C        14.71795469417166    0.90796668881772  -15.23463876182699
H        13.70669650086194    0.88691209785791  -14.83817506366150
H        14.85689308627074    1.83060663482016  -15.79111945211933
H        15.42452944350368    0.88419618097509  -14.40739977230456
C        13.92296125415797   -0.32847644819740  -17.28413669308252
H        12.91719056673353   -0.35362388492584  -16.87578392851708
H        14.07653126661198   -1.21416234692776  -17.89725944539710
H        14.02718827688342    0.55549240529488  -17.90710926397211

