87
CSD_code = IGAWEV | q = 0 | S = 0 | Stoichiometry = C30H51ClNOP2V | MND = 5
V        12.24524937656851    6.40380195354153    3.08172007582101
Cl       13.28247965128353    7.60055191886962    4.74504225449655
P        13.80574002406652    7.30041560502318    1.45493154489556
P        11.70009353316398    4.73271627536740    4.66491474544284
O        10.81541603765709    6.99245634814302    2.73268741815266
N        12.60092951285877    4.80590934041654    2.06644994534589
C        11.10656138266769    3.44316741557285    3.48454479045047
H        11.13809025194177    2.42833222366654    3.88734269496521
H        10.06970967860753    3.67759576391595    3.22491147053398
C        11.99274535931828    3.59947516910374    2.28920754200316
C        12.35854494959745    2.70600353707537    1.31116070147807
H        12.03812082973357    1.68435412809887    1.21904486550457
C        13.24450257057929    3.39193313775425    0.44948701313527
H        13.73160774562458    2.98852719339716   -0.41912633568938
C        13.36732693724534    4.66914255474156    0.94494855477546
C        14.28091123909688    5.77456709807983    0.51999596005957
H        14.25319479776344    5.93419564681689   -0.56176102714849
H        15.30924241103782    5.50403446563744    0.78858068458720
C        13.20057363125319    3.91073077325726    5.48615818085465
C        13.57087525530311    4.68468631996931    6.75274020174287
H        13.59697246274203    5.75417546987625    6.54598592161582
H        12.87218134676718    4.48940810167316    7.56248972710720
H        14.56196260309995    4.38231323651612    7.09166623601804
C        13.02995053546957    2.42315529614535    5.79999630229206
H        12.96932144981098    1.83392773474274    4.88760357179878
H        13.90529934690176    2.08096120022774    6.35211877649827
H        12.15375255592454    2.22285169463474    6.40837103994110
C        14.35498617252898    4.06024432381453    4.48876904622036
H        14.18075463023787    3.47391384768417    3.58698849038652
H        14.48313561940417    5.10936838322707    4.21226128794393
H        15.28341092190063    3.71256042371364    4.94325021167058
C        10.27504660570100    4.94636558851845    5.90395840350032
C        10.04196724733805    3.76605243156327    6.84340145045245
H        10.85879370480973    3.64282491447328    7.54912658970736
H         9.13273064858061    3.94228369922289    7.41871345430423
H         9.90903445282411    2.84134983303592    6.28402345574280
C        10.55153069378213    6.22917915775827    6.69064918892108
H        10.79184231688713    7.04095538936534    6.00339829137056
H         9.67197570407098    6.51346342182117    7.26832042233195
H        11.38278927421981    6.11280045604946    7.37879973471081
C         9.00479199606673    5.17128744925138    5.07550245207617
H         9.19443593991418    5.86648202130420    4.25792462178696
H         8.61766830330975    4.23873112169261    4.66943002590989
H         8.22624246133919    5.60358982467626    5.70367638667823
C        15.50874063562385    8.06688951373452    1.82148697732622
C        16.12118856161775    7.18552009477007    2.91728091960038
H        15.50465520261540    7.21948776584681    3.81368802810959
H        16.22875764066874    6.14863569307201    2.59711031119252
H        17.11140754604465    7.55674706365339    3.18042529322493
C        15.30260345526701    9.46681658631309    2.39898425115608
H        15.02018090799823   10.17922742721448    1.62711932969090
H        14.53167399019765    9.44301329674829    3.16891030989238
H        16.22675016105414    9.81946883519459    2.85580846330000
C        16.47927883555480    8.11799148252790    0.63933506428811
H        16.20631463835898    8.87998416549034   -0.08214965177950
H        17.47270585297046    8.36462492267499    1.01445251796488
H        16.55031155307420    7.16264276013977    0.12500519841149
C        12.89385838648622    8.32033178627504    0.13977375671163
C        12.19662793215695    9.47884934149942    0.85612330987850
H        12.90965061542852   10.21536698209045    1.21648573950646
H        11.50429015266961    9.97982075788953    0.17894776424971
H        11.63347965602739    9.10438827300199    1.70949428155668
C        11.82196119952078    7.38330907996609   -0.42567635532589
H        11.33449911620832    6.84273700065200    0.38249630698722
H        11.06566431403485    7.95847533746063   -0.96009523098446
H        12.24317111083502    6.65792792194490   -1.11798186763822
C        13.74244942258188    8.85622499136208   -1.01063457640417
H        14.36436274111780    9.68875818483165   -0.69256892925030
H        14.37498150233284    8.08230234422911   -1.44018968472712
H        13.08203887375122    9.22230283384197   -1.79717641543230
C         9.62122232517840    7.48773907095585    2.48399725892763
C         9.22479160590649    8.69799732825386    3.09046810950576
C         7.97083691972980    9.21397318414142    2.80434123771855
H         7.67380034653866   10.14304226975548    3.26872984760843
C         7.10565338489342    8.55998811544142    1.94651515815620
H         6.13347870995012    8.97800222474905    1.73325482527218
C         7.48795662451437    7.36211770238305    1.37139606832927
H         6.81187412464585    6.83781445702421    0.71161955457995
C         8.73235606970106    6.80797519728091    1.62636095290418
C        10.13377978498923    9.41454361945983    4.04437570625582
H         9.66235409869016    9.48339987659422    5.02478877817650
H        11.08698793819747    8.89576895373479    4.15290505117046
H        10.32454887109354   10.42949558310885    3.69685542882677
C         9.10501383645395    5.49117932762670    1.00979324965500
H        10.09350357546280    5.16757929354425    1.33159906703432
H         8.37680996958181    4.73011714323985    1.29105432195523
H         9.09953564129057    5.56588032098695   -0.07731609792673

