75
CSD_code = IGAWUL | q = 0 | S = 0 | Stoichiometry = C26H43ClNOP2V | MND = 5
V         1.11218403805154    4.13643703602391    3.75314740275450
Cl        2.47791864180787    2.54725387545289    3.44561087506980
P         2.84210601786987    5.04728181003904    5.09325625137359
P        -0.80120332330771    2.93090346949597    3.02814671797702
O         0.41673111545356    5.50642880191417    3.29547290740703
N         0.36230987403754    3.71329606475414    5.44831063467385
C         2.49065530022881    4.06766736595813    6.62454924857320
H         3.06965332804454    3.13633106597943    6.54688004200900
H         2.80256360516158    4.59655000606254    7.53184182669504
C         1.02787811724786    3.75272297939190    6.63456004985510
C         0.16860880551903    3.38604571954850    7.64512983270537
H         0.39908903062471    3.30897454181032    8.69190551482196
C        -1.08143014049412    3.11593695505324    7.03922459360433
H        -1.97928977747589    2.80576604578686    7.54186568974715
C        -0.92012623891999    3.32290050069502    5.68840546883856
C        -1.85813332727484    3.19491397813270    4.52919003980209
H        -2.42923523060028    4.12015886111208    4.37919730126674
H        -2.56874790142698    2.37477443714389    4.67750299200382
C         4.66496393752725    4.69065209019646    4.87176424220888
H         4.72263032308925    3.59926952988047    4.98852154904367
C         5.10369221193316    5.02100952800131    3.44749420714714
H         4.45797262337643    4.50589555747441    2.73588857770040
H         6.12803631100670    4.68915718274933    3.28196126856888
H         5.05851597153762    6.09105508181141    3.25459351603823
C         5.56871243341026    5.34259697783317    5.91213936395933
H         6.58030439861124    4.95006255983548    5.81499444984243
H         5.22183558418849    5.13145746573033    6.92191046841374
H         5.61461221735845    6.42068278144762    5.77394102178290
C         2.72091612875806    6.78332092167980    5.76296539595895
H         3.43429661349252    6.89635982432073    6.58881171535234
C         3.02830488992693    7.79527315978685    4.66345970197679
H         2.37820808561945    7.62220779076446    3.80501635413993
H         4.06369314978521    7.72618824275485    4.33664381459752
H         2.85535050641335    8.81017487324279    5.02098443263461
C         1.30348828529303    6.99204930705568    6.28529128372803
H         1.07538957777577    6.31733534561312    7.10797485297965
H         0.58856503836482    6.80630050807786    5.48516226764987
H         1.17406172713001    8.01674465119134    6.63315839968971
C        -0.86808889461181    1.07755913639622    2.88746459207614
H        -1.92258467715219    0.78310924545231    2.79657735602380
C        -0.08230519386867    0.61688451600068    1.66365659129666
H        -0.00447570335429   -0.46968109497480    1.65119476628627
H         0.92513305383589    1.03179513538553    1.69557531866411
H        -0.56135750869428    0.93202083747609    0.73930546015294
C        -0.28307393992237    0.46028162242078    4.15555342959826
H        -0.82836080018247    0.76883568007389    5.04547768880055
H         0.75724514894011    0.76063280910348    4.27333460694115
H        -0.31832704008637   -0.62686245910324    4.09087275952740
C        -1.91882435737684    3.62118243324362    1.69514006078595
H        -2.16067736982776    4.62314622879449    2.08173550438069
C        -1.15487178216231    3.80709328530917    0.38636644319257
H        -0.16877901401487    4.22903584215390    0.58345948644002
H        -1.69267449723298    4.48507221160873   -0.27555376598271
H        -1.02532881096579    2.86026242756563   -0.13249686173837
C        -3.21616132123700    2.84866744086755    1.48661204152416
H        -3.02319186797391    1.87985019448622    1.03129562680094
H        -3.87406229880171    3.40578090343039    0.82047175103287
H        -3.73897444074207    2.69508752868013    2.42858602425460
C         0.11877170289631    6.53069973048187    2.54036192601193
C         0.91253565297038    6.79492087621164    1.40140329862795
C         0.59011822943704    7.87009501138567    0.59121110033855
H         1.19751282880272    8.06991292842328   -0.27993104376213
C        -0.49073795223087    8.68519061970223    0.88123721325373
H        -0.72717385966576    9.51966041588906    0.23870453170185
C        -1.26628876264684    8.42587861894683    1.99626479415372
H        -2.11131650345671    9.05847880222875    2.22717660868562
C        -0.98154370881361    7.35933547164482    2.83381968746583
C         2.09791997198436    5.92670060016200    1.09208212009668
H         2.03186428491468    4.96490721961259    1.62023941071087
H         3.01797845511696    6.42535657358097    1.40386523417190
H         2.16540197208246    5.74208118925569    0.02059506578793
C        -1.83449524830681    7.08640259678853    4.03864325350914
H        -1.47036890736304    6.21237388613257    4.57781289696040
H        -2.86903369547518    6.91365505853580    3.74055856612603
H        -1.82328509372176    7.94225958247021    4.71325218343725

