40
CSD_code = IGAWOC | q = 0 | S = 0 | Stoichiometry = C18H12Cl3N6Rh | MND = 6
Rh       -3.25725667085643    7.96663350480441    8.58281014031883
Cl       -5.20824266610313    9.14720357015864    8.09181213745784
Cl       -2.17010494795958    9.87329820012634    9.10793460377865
Cl       -1.36707242834343    6.67722991349174    9.03933481039477
N        -4.15422027751247    6.40501118762833    8.15125822966686
N        -4.76884582640599    4.83660999059751    6.55915732461504
N        -5.47325041637818    4.62092826204090    8.82093851480348
N        -2.82133961835528    7.89607937254247    6.63244660639156
N        -3.98586385815913    7.52675043319293   10.39653727548309
N        -6.83601783350036    2.39877816816746    8.18055767744684
C        -4.14073770662582    5.94302094134292    6.89507059725634
C        -4.82445376604282    5.72933736517492    9.09465129530479
C        -5.42268900347087    4.20796915065785    7.54938249448301
C        -3.36541857196919    6.81378411800963    6.01462224253375
C        -3.18529316701874    6.58080375404474    4.65776025878039
C        -2.43148137771609    7.47560674047480    3.91807613462466
C        -1.88121079740939    8.57529471031354    4.56062642874365
C        -2.09970375183882    8.74899985365897    5.91914864556522
C        -4.72210989210634    6.38395323634008   10.39615236610582
C        -5.31889056336135    5.89437073762582   11.55003146897744
C        -5.15533417569652    6.59383112021217   12.73365939122858
C        -4.40142064197955    7.75858792108405   12.72234830736577
C        -3.83366049628838    8.19155664975889   11.53302320152571
C        -6.13337597433451    2.97721612133175    7.20876624379243
C        -6.06131326353229    2.45313383682829    5.91560530014437
C        -6.74993878897203    1.28533011692748    5.63913333867906
C        -7.48242172744932    0.68608820150172    6.65216644187897
C        -7.48803668031448    1.29046918525591    7.90513317882529
H        -3.64027183682978    5.70725498544174    4.21938429888364
H        -2.27615527942031    7.31869749696121    2.86180001855162
H        -1.28796661308876    9.29555421864730    4.02065353938110
H        -1.68782770596385    9.59447651188270    6.45838862669379
H        -5.89110602350025    4.98284568955102   11.48417992321868
H        -5.60650971456293    6.23751130355880   13.64680343617770
H        -4.24988206411364    8.33195746383720   13.62276700317890
H        -3.23871571542387    9.09634842426869   11.48222553447519
H        -5.47566795777209    2.96212896619804    5.16807566622423
H        -6.71598978870185    0.84983905815997    4.65103968713742
H        -8.03448358668832   -0.22423665256911    6.47836031106831
H        -8.04511882423367    0.86204617076809    8.72807729883707

