55
CSD_code = IGAWAO | q = 0 | S = 0 | Stoichiometry = C19H25N3O7W | MND = 6
W         5.60926289786220    3.28034215327786    1.78464973467779
O         6.38670269046984    3.27324319921421   -1.25864315777621
O         4.93280230330038    3.20519826929844    4.84879101768030
O         4.62563549750699    0.32507078180995    1.43934763042649
O         7.01735332326099    6.04816049870470    2.23208698025150
O         8.33122755077098    1.89489705471462    2.48620531803145
O         2.44877539463480    1.87842289677367   -0.07968427567579
O         1.41897781752348    0.64922061296249    1.49422135100714
N         2.44078039521468    4.08256102784088    1.49716479040484
N         3.74655566280399    5.50483145396372    0.61128346441278
H         4.58330534114421    5.95743839234906    0.27507825909000
N         2.22197255412731    7.21898911882625   -0.20182029375509
H         2.57987451633811    7.22406482976526   -1.15206865408878
C         6.08678814622568    3.29102016102370   -0.15660064757453
C         5.14459895210909    3.24657159175471    3.72320622132112
C         4.89217505909174    1.43412468614271    1.53946879974792
C         6.46527451287813    5.05913221619126    2.05844727709484
C         7.33768427095475    2.39928297055662    2.22561367641250
C         3.74582770753378    4.33335839421212    1.26481034403242
C         1.61943339019024    5.06935856480923    0.96450146111880
C         2.46524820165269    5.99585493091545    0.42254028637534
C         2.04531328691188    2.84045692547717    2.09501412608845
H         1.08903969507352    2.90936982951942    2.60892063401174
H         2.81113586056814    2.54967919130771    2.82486155024444
C         2.00246164801285    1.74687295482479    1.02633008725424
C         1.40689595993312   -0.47766446392685    0.62106645505255
H         0.81003137064059   -1.23848678854869    1.11684084336097
H         2.42635752534741   -0.83258433115777    0.46135786284511
H         0.96878378014050   -0.20541321010102   -0.34094804004725
C         0.10914809992888    5.05222692899478    0.98780172231771
C        -0.44291186852080    3.71981125253776    0.44967630022072
H        -1.46861296428189    3.86442132345966    0.11762994131573
H        -0.45592325719137    2.93243148466404    1.19694586460125
H         0.14321324504489    3.38373585199480   -0.40242432409733
C        -0.40120449369866    5.31578399134802    2.41213661839690
H        -0.03352077776574    4.58316333857574    3.12610496637317
H        -1.48821772199209    5.28414251046493    2.42370357868267
H        -0.08180374437266    6.29929371669924    2.74749560177797
C        -0.42987391368147    6.15710490344295    0.07226372980834
H        -1.51692388861358    6.15865334118166    0.10689436311515
H        -0.11374308872066    5.98644265301620   -0.95245007885188
H        -0.07022716218942    7.13107191799729    0.37930651349342
C         2.63517769725993    8.45418778175410    0.48428536713387
C         2.02811803940030    9.60341276245134   -0.32487452321175
H         2.19590551702130   10.55141503037213    0.17833265759649
H         0.95839668617961    9.45276479831776   -0.44235532657819
H         2.47814087807004    9.65339731677010   -1.31389607311899
C         2.07001966511534    8.45842604149444    1.90387482297757
H         0.98419363329729    8.42669491154667    1.88251134790874
H         2.37875760819276    9.36377424279886    2.41925594481296
H         2.43347254373538    7.60097444819330    2.46603784090647
C         4.16228125912737    8.62715537313517    0.54545221552693
H         4.60938058646473    7.94816433281808    1.26855843012747
H         4.40566398420100    9.64139768859577    0.85203763580324
H         4.61051812577473    8.45667814488644   -0.43294823907806

