93
CSD_code = IGECON | q = 1 | S = 0 | Stoichiometry = C36H44AgN8O4(1+) | MND = 4
Ag        0.40865225139680   11.92595520361077   10.49263977817900
N         0.22884073147156   12.15808248269109    8.09573863196839
N         1.25959616518360   12.83527898335777    7.56281483473896
N         1.69956066016465   13.91142795214622   10.14596511175355
N         2.64768858310175   13.81306653621623    9.19799756985660
N        -0.90952030598481    9.94573877339079   10.75743755904370
N        -1.47926899914394    9.82198188612237   11.96753654286292
N        -1.65240931445424   12.87162156924944   11.30495713232162
N        -2.34200881624212   12.01313704806723   12.07393290895542
O         3.30013948411985    7.50379883529562   10.05278976232893
H         3.26680750536258    6.90341940816120    9.29437506222592
O         2.85457604832810    7.91806190904032    7.45863274722619
O         0.80331292531019   14.40916172079724   15.34393518279715
O         3.11536437496600   13.30773074135358   14.77892289309685
H         3.90369716585133   12.78897362987530   14.57536453511694
C         1.79316043283649   14.40731946606822    5.68952663922341
H         1.25942477269749   14.82215734967511    4.83948628322245
H         2.64864319824131   13.84376797036371    5.31613722317850
H         2.15985349813575   15.23234649940741    6.30070095592586
C         0.87483652234976   13.54251434207889    6.47119495159486
C        -0.46565398383932   13.28175537971551    6.29573694999788
H        -1.09957101437528   13.66522133287446    5.52334515000208
C        -0.82613305793996   12.41265074186594    7.33925283097723
C        -2.14574326104951   11.79121357496788    7.61491580935591
H        -2.12880799064947   11.34267164285439    8.60581219648201
H        -2.36031823674742   11.01998712931589    6.87621276781494
H        -2.93634593844484   12.53522045044400    7.56295804942189
C         4.74703617206892   14.94043833318348    8.42585758084426
H         5.34702445343409   14.03070057928619    8.43262589207336
H         5.36359645466395   15.76344151148448    8.77559425527024
H         4.45089511322926   15.15099889035115    7.39800075065739
C         3.56614254361827   14.80419941592846    9.31469893663710
C         3.17344821397172   15.56867761143676   10.39050270821436
H         3.66365739539477   16.43750989845330   10.77755629449168
C         1.99680178916800   14.97351806918634   10.87592848973826
C         1.14412011198877   15.40885033684065   12.00787903205408
H         0.29571845401207   14.73300185765290   12.09558448960728
H         0.78706218194647   16.42299059569470   11.83609401844371
H         1.71333657656250   15.40634771450610   12.93562529379590
C         2.56066932221279   12.78660735955751    8.18947848198218
H         3.31486447789555   13.01269674192331    7.42537961777237
C         2.78577616496445   11.38889703446468    8.73545875172551
C         3.03137014234515   11.13355219727033   10.07617146715243
H         3.18059173280354   11.94180293924445   10.77630306203914
C         3.21587621722457    9.82409608615580   10.50466781969264
H         3.43976655297957    9.59814648312936   11.53422647699636
C         3.13847969168744    8.76981183903325    9.61431188407295
C         2.89936740211699    9.03066358857802    8.24920945307930
C         2.73026844057499   10.33401758597449    7.82440294335248
H         2.54336620192454   10.54971202167349    6.78402857500160
C         2.62138130581133    8.07936996342753    6.07836056034458
H         2.62161410146632    7.07426295485793    5.66121168058274
H         3.41445754458515    8.66639824862994    5.60698330128043
H         1.65190145557900    8.55075771508777    5.89323643663912
C        -2.52279095128996    8.09895376528134   13.45655531344979
H        -1.86774501636831    8.28670808315198   14.30729433962231
H        -2.71506991587839    7.03168745461656   13.39864464020940
H        -3.47074519027715    8.60715251976411   13.63283451712789
C        -1.88860609328696    8.54910841037469   12.19256892462657
C        -1.56216730024674    7.83410888532206   11.06158457866655
H        -1.73569481669810    6.79298826471117   10.88522749232732
C        -0.95466313045088    8.75253924646205   10.18964965172591
C        -0.43512993479531    8.51989218972797    8.81992289609272
H         0.00740300569614    9.44058456124015    8.44541326521127
H        -1.24542786308960    8.21181986057557    8.16070681830049
H         0.30987075967449    7.72701221339561    8.82892920308300
C        -4.69102597892590   11.44594507009394   12.72805621006275
H        -4.49615222341964   11.42573389070700   13.80045089300305
H        -4.70222443174077   10.42084143586397   12.35696606794797
H        -5.67404727561987   11.87850895791990   12.56694935145029
C        -3.67532054933486   12.25276878684620   12.00728324780394
C        -3.83210031043285   13.32978231970653   11.16353044421918
H        -4.75249098035682   13.80022495178751   10.88579687158980
C        -2.53715890861664   13.68018875944976   10.74608035859002
C        -2.11481547070686   14.78636478583903    9.85074489150980
H        -1.06974585079824   14.64725304897073    9.58147188890956
H        -2.22949467658691   15.74461263885335   10.35570895432372
H        -2.72542078696871   14.80544364989146    8.95168692482082
C        -1.64637940607292   10.98112423110189   12.80839031498820
H        -2.27481348689113   10.68397248726436   13.65712756672632
C        -0.33134510397978   11.54421722103968   13.31500080938867
C        -0.39182243972083   12.69539709490962   14.10108637233468
H        -1.35625748580513   13.12773920969044   14.31695428839554
C         0.75786286353442   13.28885710469818   14.59243221963361
C         2.00850170589281   12.69829820268618   14.29698752860337
C         2.05442397696013   11.54166438669174   13.54420261816737
H         3.01188555816469   11.07379475518482   13.36168717148502
C         0.89442231049144   10.96156909103238   13.03701840767108
H         0.96260591112164   10.01511027795821   12.52226474611918
C        -0.40193418402230   15.05496629193411   15.67922288833597
H        -0.11348286319888   15.91736120675398   16.27717607113963
H        -1.05381720158832   14.40744525857992   16.27355109324802
H        -0.93594987954574   15.39422929812260   14.78574184620233

