122
CSD_code = IGEDIH | q = 0 | S = 0 | Stoichiometry = C62H56LaNSi2 | MND = 13
La        1.96678971932898    6.50023549382470    5.56697406547552
Si        3.14724244968734    3.44263764145083    4.25309309800792
Si        3.94889024367034    4.06300595109814    7.05537844929073
N         3.10504704191918    4.49660691985452    5.62238217248443
C         4.86392840184847    3.44159966630759    3.42647577244609
C         2.69682488748574    1.63118881439728    4.61005304668076
C         3.81592034286922    5.59689434258934    8.20074977434284
C         3.30071037870095    2.54294100971834    7.99494686383823
C         1.59347436356626    9.68249957911991    4.76187928483093
C         1.80113508487720    8.91717374613700    3.60127892531757
C         3.02544258813491    8.19375211626627    3.76898181132158
C         3.56576797248121    8.54689975800274    5.06752734317442
C         2.65357073430839    9.48606066627116    5.66378051851662
C         0.95517038017658    8.99112150859096    2.40923734527967
C         1.49456945238984    8.97653690907597    1.12221966738117
C         0.67366825823804    9.05600908810224    0.01334126427796
C        -0.69979035001370    9.16101688759885    0.16147938921421
C        -1.24597619700336    9.20407271469889    1.43353297900691
C        -0.42903312431751    9.12506491695427    2.54464370818911
C         3.75302739936222    7.45960595187377    2.71593989835003
C         5.07228153139750    7.78687115729660    2.39874668760230
C         5.74023822225303    7.11417461955810    1.39227359972420
C         5.10396118068842    6.11481138359941    0.67507565648383
C         3.78861985752245    5.79339290974349    0.96828767328183
C         3.11915710550485    6.45524186810096    1.97975149866961
C         4.96387316311900    8.30144956371647    5.46809353602441
C         5.76484192380320    9.36203527737226    5.89788011118824
C         7.08840476021767    9.15285044877962    6.23608218421255
C         7.64410484274896    7.88762106714346    6.13872969619242
C         6.86407162219008    6.82983015656652    5.69970259304660
C         5.53637160604158    7.02873906389633    5.36862772518274
C         2.79623047101321   10.13548913640175    6.96207607671739
C         2.23382358633632   11.39352177671673    7.19148915261944
C         2.36105253911901   12.01538927948037    8.41827539484169
C         3.05368298387127   11.39926079528525    9.44769337579932
C         3.61445052671529   10.14932062393684    9.23808808441911
C         3.48486515481432    9.52243925785002    8.01432706447846
C        -0.19156787134700    3.94407550458836    6.54942153314502
C        -0.08447956154322    4.54642417151163    7.82059393163670
C        -0.23926967208092    5.93428015818510    7.66799394144955
C        -0.46406126535853    6.22405944516415    6.26040958593982
C        -0.43171792008711    4.91512896502587    5.58415506355730
C        -0.59697951343458    4.68729752351497    4.15145927318028
C        -0.96285262023163    3.42951809709391    3.66181302193003
C        -1.09548061887549    3.20462676388796    2.30583252794195
C        -0.88239959942458    4.22938919059316    1.39817163929955
C        -0.53688380783339    5.48831133203184    1.86279225934837
C        -0.38800337764656    5.71437765755800    3.21848465340821
C        -1.38239123597719    7.31800089484473    5.84993397256268
C        -2.54051238330205    7.00711138137151    5.13019354031179
C        -3.44908118395120    7.98887549271961    4.78501691981614
C        -3.24153731444181    9.30341422860733    5.16845119924702
C        -2.11249544916827    9.62341986098135    5.90351283243699
C        -1.19041384439531    8.64731212446978    6.23594410590871
C        -0.41489167211082    6.89596763748765    8.76523872515746
C        -1.46644829900792    6.73338080117326    9.66545481181524
C        -1.65039263597948    7.63030922075566   10.70003672469939
C        -0.78944936801281    8.70464189640181   10.85507566573633
C         0.26570254548739    8.87210692791108    9.97471039246177
C         0.45259622400848    7.97206303025819    8.94180188509253
C         0.15992992801474    3.83612408600222    9.06847746069149
C        -0.30788210183348    2.53060133943902    9.23340908810182
C        -0.07431596174747    1.83569893478956   10.40370948930520
C         0.63025241468041    2.42836377367924   11.43847084054721
C         1.09641470382515    3.72404863636653   11.29039982644993
C         0.86577800006135    4.42131793331884   10.12079785155894
H         2.13929357978334    3.97375770415343    3.28890808843385
H         5.40396769477181    3.85147354266243    6.85005031156188
H         5.17453715095422    4.44015796355729    3.13678160162833
H         4.86615136406603    2.82706883381834    2.53280468090838
H         5.61313178550498    3.04479057286474    4.10385650763872
H         1.83766875212016    1.56021888400752    5.26637133096752
H         3.51962784492353    1.10831656900312    5.08582606636771
H         2.45716413189415    1.10512393165466    3.69187781385680
H         4.61091897949757    6.30872294045335    7.98792562617665
H         3.91764695095707    5.30285458976301    9.24012598738526
H         2.84060538892684    6.10071858656099    8.10959112848917
H         3.60969719279002    1.62863244821414    7.50178482231400
H         2.21807407035308    2.53638068948434    8.05271214576405
H         3.68109777452488    2.51446145396922    9.01104089995311
H         0.76688107728874   10.35590502549926    4.90602951101566
H         2.56416814888331    8.92003113615905    0.99155754930526
H         1.11057814096463    9.04146119537667   -0.97478138094017
H        -1.33831485433275    9.21810126533659   -0.70768544217481
H        -2.31447489128747    9.29613986771365    1.56406197282998
H        -0.87021551517687    9.15899156170795    3.53007571071889
H         5.56779285046315    8.58311578299573    2.93383138466947
H         6.76198224224295    7.37823088175465    1.16184925189393
H         5.62841348414634    5.59314965012913   -0.11128148663560
H         3.28129385834656    5.01963071522953    0.41184792932734
H         2.08480973967784    6.20469630296819    2.18773006235139
H         5.34155352536871   10.35382807997264    5.95878347427326
H         7.69121926206459    9.98436546259094    6.57059919248469
H         8.67891345084056    7.72778650917155    6.40178182729004
H         7.28788735554330    5.84009794809984    5.61886274763039
H         4.94083455996631    6.18204835957958    5.03082280596850
H         1.70934324574651   11.89113234806562    6.38995403010331
H         1.92201639228128   12.99061342202363    8.57200823408714
H         3.15580120419983   11.88786574971916   10.40537140109194
H         4.15100483723706    9.65620931279290   10.03584085048636
H         3.92703038291555    8.54361895701686    7.87129543461812
H        -0.03566574584818    2.89787191347647    6.35553515030848
H        -1.15086581213210    2.62612147085147    4.35673086714332
H        -1.37348413511540    2.22249065625263    1.95232884308826
H        -0.98972193372770    4.05210354284268    0.33892848911091
H        -0.38187885045181    6.30147366972765    1.16758854095247
H        -0.14547521486113    6.72469247310765    3.55316822899539
H        -2.73195593914878    5.98235603838763    4.84999187979961
H        -4.33182058979875    7.72262809777467    4.22240089012327
H        -3.95281897802946   10.07025189181698    4.90108946604797
H        -1.94112176086175   10.64386423956291    6.21491767590076
H        -0.31360623557022    8.93063263752818    6.80229922370054
H        -2.13714616824306    5.89666144305931    9.54055938025105
H        -2.47123228798539    7.49336364488735   11.38847900583531
H        -0.93580631183384    9.40616404690167   11.66266929583335
H         0.94968387057806    9.69997339564434   10.09047414219791
H         1.30473875802964    8.09679946563276    8.27178866590439
H        -0.87040376770475    2.06588591956933    8.43698058466993
H        -0.44502265946306    0.82634928016394   10.51211272391805
H         0.81416127158236    1.88438959230729   12.35325767429607
H         1.64818629189376    4.19365169423421   12.09258085464411
H         1.24557739681145    5.42666756493766   10.01794809510089

