28
CSD_code = IGEFEF | q = 0 | S = 0 | Stoichiometry = C11H10Br2N2S2Zn | MND = 4
Zn        0.19306106771214    2.90708861417566    5.66001987196816
Br       -2.02061499618697    2.86304643171846    6.48420905018117
Br        1.71848300122395    4.70454882316150    5.54286457958680
C         1.48304123633504   -0.37440746281327    4.38574659988714
H         1.11249757790233   -0.89619287312123    3.50665080692892
H         2.29102999922706   -0.93169119216714    4.85353285054571
S         0.07138667880412   -0.28123150190265    5.53924782226812
N         1.25641040016688    1.55560072797508    7.03819670354522
C         0.97036596931769    0.26316118777981    6.98150231245482
C         1.34357964902945   -0.64000316598027    7.96136831595664
H         1.06889191866013   -1.67839644337544    7.86928419849346
C         2.06247563048933   -0.16189268964427    9.04597898240863
H         2.36388113496496   -0.83216708600126    9.83649857208313
C         2.38998135925381    1.18451072572239    9.09144299990516
H         2.95601092190480    1.59489329538508    9.91162833831205
C         1.96537736219133    2.00976740802152    8.06379934689529
H         2.19450016072085    3.06686926169443    8.05197224131642
S         2.20962208701038    1.22032187036994    3.87478466199836
N        -0.15441063588767    2.37103048752724    3.55129618306764
C         0.83980933543220    1.79945560922316    2.88812479712282
C         0.83796789610614    1.63253601507865    1.51435608686986
H         1.68256096847478    1.17335870540316    1.02638357988308
C        -0.26816514294416    2.07796437534495    0.80726086880538
H        -0.30502140896725    1.97409857194676   -0.26651372401445
C        -1.32206272445610    2.65017517638097    1.50298261594682
H        -2.20426054312254    3.00040650705566    0.99251469877469
C        -1.22295403206776    2.77799353401799    2.87827115430909
H        -2.01774487130195    3.21535508701891    3.46739548450497

