61
CSD_code = IGENIT | q = 1 | S = 0 | Stoichiometry = C21H34N2O2PRu(1+) | MND = 9
Ru        1.07449473908305   10.95710554473106    1.45164362271177
P         0.65007439123423   10.32016664309030    3.63590609529353
O        -0.50631754279987   11.94371201578076    0.80244944633602
O        -0.85910532554772   10.71353618440879    1.13944559557837
N         1.58475753627146   12.69361280537055    2.53067124173489
N         1.67985054624740   11.41924562367730    4.44630708403546
H         1.76537856430484   11.39849023447531    5.45636109995911
C         1.37015269615897    9.92112296647559   -0.51734061855355
C         1.96796610475231    9.14873408054288    0.52644093080971
C         3.00289305971542    9.95649367510371    1.12635138073322
C         3.06138817020108   11.19814197032299    0.39623234378014
C         2.03976701932870   11.18760760739891   -0.58837161129638
C         0.29896973087712    9.45659155777127   -1.44364916886671
H         0.39302697151642    8.38981565341589   -1.63571149078212
H        -0.68502426928562    9.63619055627976   -0.99908922115995
H         0.34430794591748    9.99753860608062   -2.38588737661052
C         1.73578482332902    7.68367779082264    0.71811287136380
H         0.67638138730135    7.44512393165068    0.65303832959123
H         2.25404465174322    7.13989777737630   -0.07440885824812
H         2.11533009101416    7.32969122004906    1.67203997756446
C         4.10892849968865    9.47964800575536    2.02143084580039
H         4.23971789808106   10.13159468793366    2.88502462965006
H         5.04435013234014    9.47530133277514    1.46028592560411
H         3.92712899808194    8.46769441845995    2.37266554236885
C         4.15216201021840   12.20752419898742    0.55281853184674
H         3.85335835992879   13.19167493633074    0.19953989448792
H         4.47259519605700   12.29021643072598    1.59026571625004
H         5.01195336649028   11.88534583747956   -0.03830081273286
C         1.77589459134886   12.22051936653035   -1.63442925863654
H         0.72048445953421   12.49425935536066   -1.64379960016287
H         2.37165100925174   13.11541967060163   -1.47246200864755
H         2.02813155282381   11.81727353599231   -2.61623530361335
C         1.86666018090520   12.63746878032858    3.84076689381335
C         2.33163477087229   13.76141293968899    4.52960419070866
H         2.57016513686793   13.68379648834712    5.57851321442194
C         2.45518174116349   14.95689885176868    3.85332991628466
H         2.80559393972817   15.83795657591861    4.36675836732868
C         2.09605503130005   15.01481511420571    2.50989963172577
H         2.14513195155943   15.93905251798629    1.95982166916784
C         1.66814076032629   13.86019599680921    1.88983687273005
H         1.35060551865032   13.85655681187970    0.85491152905002
C        -1.05788649166218   10.71970297005513    4.26494832361553
H        -1.72590253854069   10.08034906632860    3.67709540770897
C        -1.36443317886708   12.18012133675872    3.92678544028117
H        -0.75678165094009   12.85929886856277    4.52566769150181
H        -1.19777468166045   12.39518049411009    2.87078135752094
H        -2.40984475419159   12.38911142250686    4.14186346167200
C        -1.26953603470572   10.47191955522334    5.75626809268793
H        -1.21382359345318    9.41845978173531    6.01240093231614
H        -2.26339479425621   10.82119597774397    6.02974255575157
H        -0.55048540456371   11.02713337522969    6.35685747419840
C         1.20281838629076    8.68001428184751    4.29673683259713
H         2.07719425638248    8.44230421634381    3.68015072168790
C         1.65754589645472    8.65258435152932    5.75237566955021
H         0.87931584522291    8.96816105033041    6.43883949900382
H         2.53712408451221    9.27544614245812    5.89913478559913
H         1.93132338307324    7.63108946069772    6.01011328355397
C         0.10316588330396    7.66615634255150    3.98542103693699
H        -0.30449755617797    7.84993335649558    2.99025122148822
H         0.49595715414268    6.65245887357993    4.01906580972663
H        -0.70983060694803    7.73275677722991    4.70271234117376

