72
CSD_code = IGESOC | q = 0 | S = 0 | Stoichiometry = C21H47ClOsP2 | MND = 7
Os        2.07215438914361    6.54815012511947    3.30815317224408
Cl        1.06552019454901    4.50386841762179    3.37246983481727
P         3.97287219297959    5.72087352004363    2.11532640032037
P         0.06148367665447    7.71105070521405    3.87837591347425
C         4.27187758276470    7.04952997393747    0.84652827460520
C         3.56975099625264    8.34331213901066    1.25091784949169
C         2.18918331423256    8.07002729487752    1.84521021192009
C         1.49312153933794    9.39032879153003    2.17060894370984
C         0.08483383815074    9.16274162378727    2.71397776705547
C         3.82346302004776    4.20223321272457    0.96818586374642
C         4.90019609132968    4.07505562031874   -0.11352763959453
C         3.79806111942469    2.93261639579636    1.81864568598560
C         2.46468966489161    4.34194426441218    0.26839168444517
C         5.60936691116709    5.64590661576937    3.07929108408252
C         5.37698480136418    4.78743292389429    4.32345307578438
C         5.91407627161377    7.07349712088874    3.54134616402042
C         6.81249895136823    5.11851665862328    2.30147581606687
C         0.01081694175090    8.51940898321133    5.59838642111086
C         1.16852009250805    9.51998949446440    5.65139077707040
C         0.28437045068567    7.42692625065971    6.63301455557021
C        -1.28167352203952    9.25312636090722    5.94736220424275
C        -1.64924109599867    6.97802391941499    3.45349820896446
C        -1.98631087380015    5.88152697470574    4.46340292641365
C        -2.80404966642445    7.98097959061549    3.37618731165032
C        -1.49459904659639    6.33020605702950    2.07078936963173
H         2.54814032605742    6.19655613317438    4.76158265757635
H         2.91599759084660    7.72847458790366    3.85406881626437
H         5.34064026575280    7.20714577363155    0.68902313558414
H         3.84165627509606    6.70473965543165   -0.09620365084441
H         4.16690330502427    8.88497938213325    1.98692852965048
H         3.47796774133405    8.99069968321650    0.36860260122504
H         1.57917564983259    7.52868732345968    1.08528573023502
H         1.43151007440421   10.01471862249251    1.26926524141394
H         2.09748665366870    9.93477813384527    2.89853697757201
H        -0.57266176004829    8.92022396042437    1.87621593593364
H        -0.30661874542229   10.05951408466181    3.19830600236069
H         4.57094495537895    3.33335181101405   -0.84183904385288
H         5.84661867190020    3.73405278228612    0.29033713555091
H         5.06732503142528    5.00747914148302   -0.64669781551669
H         3.48388977796897    2.08455119280982    1.21029286707798
H         3.09300128253929    3.03812404669406    2.64063328675499
H         4.78167690811434    2.70586067773261    2.22329373093148
H         2.27262514381854    3.45984294628903   -0.34229989978774
H         2.42749068872120    5.21029323989743   -0.38923208759867
H         1.65911115028629    4.41313365493141    0.99621237084248
H         6.25754700086791    4.81357113796480    4.96383403410450
H         5.17363632174170    3.75188917463141    4.06804963141167
H         4.52644947068831    5.17632343312350    4.88376564584986
H         6.73252492142363    7.05580673599973    4.25935652071399
H         5.03979087427413    7.50353241235724    4.02859978374114
H         6.21143403226611    7.70955590177484    2.71167636686266
H         7.71825128113937    5.31697430363593    2.87447051118302
H         6.91598062371716    5.60906626119775    1.33612115070171
H         6.75089357511456    4.04419467531503    2.15236876324962
H         1.30531559326835    9.86256710988626    6.67590935470206
H         0.97509425002391   10.39134946551703    5.03118712928441
H         2.09113479520024    9.04250821598369    5.32379562433308
H         0.37187853087413    7.86716275601339    7.62532099558597
H         1.21899685298785    6.91988284720314    6.39229239146322
H        -0.50945818508694    6.68655567917298    6.65863501435474
H        -1.12043579026393    9.84217520021645    6.85019205363624
H        -2.09150331746181    8.55869521511741    6.15248266432441
H        -1.58538992593201    9.93476678499009    5.15597233141451
H        -2.83969009710351    5.30191540550986    4.11161029319979
H        -2.24506835497865    6.30038457952489    5.43307952055269
H        -1.14413859071778    5.20323412880732    4.58459388363933
H        -3.64921068723931    7.49628644459547    2.88656612619662
H        -2.54979900614604    8.86389668049702    2.79523121045090
H        -3.13713737017402    8.29749903705264    4.35798176901275
H        -2.41403115270233    5.80933946831409    1.80385654370567
H        -0.69479001021479    5.59280195583438    2.07464763681312
H        -1.29642445761061    7.06558512168967    1.29122865130690

