63
CSD_code = IGEWUN | q = 0 | S = 0 | Stoichiometry = C31H24Cl2N2O2PRe | MND = 6
Re        3.76669359761348   10.07195983901623   12.39083156040062
Cl        5.42401863902276   11.64920505141619   13.07703657423569
Cl        2.02617301326269    8.75025256226094   11.42680834763671
P         2.27856954615789   11.16251784015896   13.95453538847751
O         4.18986495612036    8.92493558459143   13.50432170555326
O         3.29247258740131   11.31837753697699   11.13178611724325
N         5.06168663497186    9.42321244063085   10.73470983514163
N         6.01261213573156    9.27816154922832    8.74839499248106
H         6.21720928124465    9.46980226293612    7.78285310714989
C         3.06455315947692   11.70291427707819   15.49885325777147
C         2.60602646678971   12.81212115529608   16.20048124804627
H         1.80660186254964   13.41921344262488   15.79860379238806
C         3.18913595455459   13.14547822742099   17.40981728038921
H         2.84125696664513   14.01331075582090   17.95098237169889
C         4.21760246751917   12.37290050302921   17.92374477184520
H         4.67242468953108   12.64176135802059   18.86569035649071
C         4.66511888276231   11.25941656967622   17.23059586385591
H         5.46735984439009   10.65883745973219   17.63171845840982
C         4.08884592115888   10.91991149264872   16.02084360981721
H         4.43604449118090   10.06145174477983   15.45856548318780
C         0.91328033733431   10.16300278039837   14.60909374936221
C         1.05857650436165    8.78088616496055   14.65355553320053
H         1.94650660507102    8.32676483339620   14.23288217417547
C         0.06097404110757    8.00432515330582   15.21556220338749
H         0.16761565368943    6.93058579149568   15.24149940644658
C        -1.07306530856828    8.60274448987549   15.73980365698050
H        -1.85370491963630    7.99531375654343   16.17356218837417
C        -1.20862540698529    9.98194128879151   15.71299694914851
H        -2.09043504783154   10.44775276010696   16.12825505527811
C        -0.21613298494656   10.76596522865653   15.15479604705918
H        -0.31934420822908   11.84223457757766   15.13747475526407
C         1.57005579412006   12.63132767583650   13.18282144318796
C         2.34099901933918   13.79102612389419   13.12239213051370
H         3.32028439680675   13.80350424718040   13.58180009814516
C         1.85494984649274   14.90317831160432   12.45988688049419
H         2.44913692933695   15.80379423129049   12.41383340959798
C         0.61161748614006   14.85885592593930   11.84655151969555
H         0.23414285357784   15.72953651642717   11.33035097553402
C        -0.13817954937730   13.69269094549947   11.87390906505070
H        -1.09324971087790   13.65172450280767   11.37089016974802
C         0.34105439997934   12.57319190704591   12.53177273511019
H        -0.22456419053013   11.65184471502283   12.53322482463308
C         3.32304817954640   11.62668303588604    9.87231317671312
C         2.51242386095668   12.65370507017570    9.36205153024902
H         1.86773291947936   13.17788277597087   10.05061971058902
C         2.53308831602320   12.97006468006478    8.02401790438063
H         1.89657336407647   13.75844512302415    7.65093814933559
C         3.36319625887241   12.27712193782907    7.15023971450741
H         3.36994535789126   12.52204210565018    6.09945529588117
C         4.17722111685088   11.27346000851091    7.62752947986197
H         4.80751471770473   10.73920852983477    6.93127569691813
C         4.18577569069551   10.92787678210693    8.98139921583967
C         5.05327518503419    9.89472639995835    9.49695396460246
C         6.04712760680210    8.47480092728568   10.80954233831418
C         6.46884423979548    7.68500436327909   11.87303515344043
H         5.98604052022879    7.77390238029732   12.83536523808700
C         7.50569260348010    6.80862590431085   11.63444486659559
H         7.86253110524009    6.17856958921612   12.43454651917373
C         8.11392198100237    6.71315877782223   10.37962368002863
H         8.92407329257744    6.01331244084805   10.24133126012016
C         7.70632075622201    7.49069635562683    9.31408133281151
H         8.17652108037079    7.41704983084772    8.34550911673197
C         6.66346820868671    8.37342940046362    9.54633756319151

