63
CSD_code = IGEXOI | q = 0 | S = 0 | Stoichiometry = C31H24AsBr2N2O2Re | MND = 6
Re       10.28407106654777    2.22573205275531    0.71317376116041
As        8.89035201375250    4.24318584601698   -0.03362232986455
Br       11.40489521105766    0.18268718639265    1.66014929103826
Br        9.65586269048569    1.12430920468949   -1.40507191431805
O        11.67328647101191    2.84647551281021    0.06629561212422
O         8.70416901525508    1.68370964720260    1.52202437901026
N        10.52012450451705    3.15732537276320    2.70774243730224
N        10.25457750831299    3.62663896686843    4.84568161926835
H         9.88618325933075    3.59528506448065    5.78056906768532
C         6.95346578880953    4.04111195451130   -0.06971169343841
C         6.41072914440806    2.84891424684121   -0.53923438756981
H         7.06293870466090    2.05867087685658   -0.89606196209345
C         5.03767561073437    2.67114752072529   -0.55912333179120
H         4.62377179978309    1.74224221691299   -0.92223954452181
C         4.19993533725403    3.68076851689333   -0.11599087512168
H         3.12932733726989    3.54023887778605   -0.12744802503179
C         4.73476149035572    4.87546715292095    0.33851230719917
H         4.08247971975879    5.66816273527026    0.67570360292841
C         6.10647341551395    5.05751845821013    0.36379567092226
H         6.52617493048306    5.99390382027421    0.72038039876069
C         9.31336544804733    5.02007529694442   -1.76357069233646
C        10.52699383106069    4.69656632785500   -2.35829165515448
H        11.20568026020188    4.01294372925565   -1.85394000531971
C        10.85468509594847    5.23023868192819   -3.59290420213580
H        11.79476808584307    4.97378788467927   -4.05746971852046
C         9.96978865978926    6.08148877105779   -4.23369609155755
H        10.22178094526002    6.49265196441347   -5.19981727711007
C         8.75607713847823    6.40025453385260   -3.64505720979237
H         8.06504605061337    7.05817860996843   -4.15153090471446
C         8.42307584177925    5.86953079107042   -2.41134599274337
H         7.46982831711309    6.10501120320832   -1.94806667834142
C         9.16887527777658    5.69275336421460    1.22605635293154
C         8.56725916550727    5.62601857129026    2.48170383034654
H         7.82152659028120    4.85825513067536    2.67606099672226
C         8.91449599888428    6.52480757449149    3.47305695307412
H         8.44038947693568    6.46872664347588    4.44300415974944
C         9.87464509264734    7.49272354001423    3.22448912896154
H        10.15356482980388    8.18723513456004    4.00248869115719
C        10.47906009414659    7.56511687738271    1.98085804482887
H        11.22900260620142    8.31784070651819    1.78885941968722
C        10.13341586049057    6.66591991698598    0.98713734909160
H        10.61360051902951    6.70654425254291    0.01475714850477
C         8.11876191497403    1.46843676246132    2.66206119088959
C         8.64281055752043    2.03428231995404    3.85666037794434
C         9.79854309476705    2.89796793462199    3.78788209838273
C        11.47662389852313    4.07212163214693    3.05569153520719
C        12.47193307039580    4.67947736951554    2.30009185548306
H        12.59853899761843    4.42216133219350    1.25818060284842
C        13.28277369138898    5.59071158329698    2.94118002070130
H        14.06950365158945    6.07971623295467    2.38789484772272
C        13.11648170706255    5.89762581633187    4.29357161487265
H        13.77666982586798    6.61747867782660    4.75270623819713
C        12.13431336027660    5.30045349854911    5.05791847484003
H        12.00918187354351    5.53375013229301    6.10393748089515
C        11.31602252837868    4.38287227912396    4.42050537103911
C         6.95681241052227    0.68519381699501    2.72580788394530
H         6.57665548259934    0.26945164950854    1.80454331104625
C         7.99526878108365    1.76146065691377    5.06450106135466
H         8.39049969529890    2.15817191902185    5.98856860969000
C         6.86454159858790    0.97598064646592    5.10570296862575
H         6.38573144605565    0.77329144444919    6.05095275169516
C         6.34349392721944    0.44214674101713    3.93183128577466
H         5.45625828159670   -0.17151718317966    3.96640468792022

