46
CSD_code = IGEXEZ | q = 0 | S = 0 | Stoichiometry = C18H23ClN2OPt | MND = 4
Pt        3.87437339169040    7.42902706111497    5.54973736152905
Cl        5.80682822213076    7.91977854868924    6.67752377851056
N         3.87456783959627    9.04977584441450    4.40146881137239
N         3.81200584905007    5.79377194559311    6.63720680524740
O         2.18403306274783    6.69824003158813    4.66317831430549
C         1.64763556575282    7.15848200364180    3.58664632360077
C         2.05048501992104    8.34778080718322    2.91609999009054
C         1.37234537915144    8.73564869652152    1.74202679007942
H         1.69501321567831    9.64236255631277    1.24717223294829
C         0.33475794074100    8.01247687972831    1.21272945652128
C        -0.06342844133050    6.84543791669597    1.88380293227019
H        -0.88208349752599    6.26323511811222    1.48397499750885
C         0.56363629831579    6.43620473213907    3.02666603040905
H         0.25577873088834    5.53713987065488    3.53978563983973
C         3.08443575093681    9.20459095697754    3.38952387684885
H         3.19653516815952   10.12368799250994    2.80853393770548
C         4.73265913739286   10.16386380671967    4.74895287370035
H         4.79852869384787   10.87542839617229    3.91653207451869
H         5.73050525971637    9.78000373089401    4.97275128738753
C         4.18804385643042   10.88160197622318    5.99782470260635
H         3.94935027505298   10.10768368896699    6.73998185593976
C         2.91691474160045   11.65813809757410    5.66821291099800
H         3.12950507427025   12.45420261515880    4.95620253277603
H         2.50565314274063   12.10755926299188    6.56884789536542
H         2.16116758767982   11.00133536839448    5.24137703065149
C         5.26074693350041   11.79854593401550    6.57450023233032
H         5.56841902510050   12.53872916121039    5.83823886325529
H         6.12928109870294   11.21645313658051    6.87028554245602
H         4.88100941615012   12.32027287648227    7.44945882996650
C        -0.37484248961677    8.43667687026993   -0.03818748328637
H        -1.42111816250935    8.65620109021811    0.17400661859470
H        -0.34632737997544    7.64028588704478   -0.78100606625203
H         0.08512593595301    9.32498402308995   -0.46359691274778
C         2.77633223446045    5.57237782599130    7.44591507881026
H         2.02461789786823    6.35153813484711    7.49212175527859
C         2.65144470209084    4.41707609928827    8.19142719872571
H         1.79642549798827    4.28612481362108    8.83664911181874
C         3.63007448311175    3.43038386751121    8.10811825508485
C         4.70204894065487    3.67655787522874    7.25473561830726
H         5.49317282656989    2.95073235666940    7.14728177452049
C         4.75733010185636    4.85897819694213    6.54412774650775
H         5.59057525293388    5.07616858247441    5.88706556778297
C         3.52592440131206    2.15694041015907    8.87974574345349
H         3.05765228393182    1.39118193322299    8.26054393389349
H         2.91734669074537    2.28995994068566    9.77045699770968
H         4.51091304453918    1.79777307947695    9.16775115106774

