57
CSD_code = IGEXUO | q = 0 | S = 0 | Stoichiometry = C27H21N4O4Re | MND = 6
Re        5.19032462171319   13.61745630583612    9.53930665292018
O         6.55405296354137   13.99774567584856    8.65836332424076
O         3.78784692493575   14.63989462524377    8.62033731224872
O         3.82218674020533   12.74112368539520   10.69862760040852
O         5.28240794786333   14.98255415696431   11.10006864248978
N         4.57613713384083   12.08499359345249    8.20702102585241
N         3.67191832750883   10.23053135689369    7.41305741351139
H         3.16627618723258    9.36123955053069    7.39742942561991
N         6.43999370274919   12.35456823406285   10.81361728047938
N         7.15535451074547   11.39319900803720   12.66556554843562
H         7.35325340027000   11.25012882293966   13.64061027258802
C         4.67922341874698   12.11648925526457    6.83843537873982
C         5.23983075583142   13.06930457790319    5.99628312336913
H         5.67588130792583   13.96040937551304    6.42044477479605
C         5.20295406635807   12.80994280921804    4.64174666640954
H         5.62519008820589   13.52452616564926    3.95219771595212
C         4.62810326402139   11.64270820164051    4.13157589005373
H         4.61915307188026   11.48487098621953    3.06365966467142
C         4.07085141378327   10.68589785861400    4.95761994911814
H         3.62802225310889    9.78483216585666    4.56187361912203
C         4.10564835684655   10.93902902287793    6.32006159836048
C         3.96624627364792   10.95187956803935    8.53277719486148
C         3.62116680879794   10.52454419235292    9.86415836406322
C         3.32623125686301    9.18838827244862   10.14891994970804
H         3.42766828560735    8.44420219036218    9.37108900095761
C         2.94849849976125    8.79426807535090   11.41262425591133
H         2.73817016476073    7.75595421427331   11.61718617577756
C         2.83887685371000    9.74386219376152   12.42500466852498
H         2.53549443952245    9.43763471217813   13.41573113904867
C         3.12213727162398   11.06470620712830   12.17824325697507
H         3.05166235322740   11.80752840221361   12.95970479924060
C         3.53970097526898   11.49995110585913   10.90285897457898
C         7.10894282661745   11.21201015047934   10.46282580984635
C         7.38550033104516   10.66641202138076    9.21488158245356
H         7.07372232650550   11.17978126524399    8.31933712865347
C         8.09264298830323    9.48140983199524    9.18582079089678
H         8.32829687993533    9.02835825122196    8.23467840626395
C         8.52585585298126    8.85412839044485   10.35543273528951
H         9.07854969216299    7.92972066255223   10.28293230029256
C         8.27817861549925    9.39634314136070   11.60218059214876
H         8.62883796695567    8.92063075086570   12.50517526216337
C         7.56692919523191   10.58396762285522   11.63784397800931
C         6.47966964758196   12.45615736048422   12.13392013149871
C         5.93230411268302   13.51942739465879   12.93418444521087
C         5.92719212827103   13.38588097366723   14.33367069369994
H         6.27209717702653   12.46424848072449   14.78199499033961
C         5.47816502590268   14.38092413319958   15.16489542585624
H         5.48314961197540   14.24083121936043   16.23493680457384
C         5.01889138030945   15.57534381263675   14.61062350687713
H         4.67536513103538   16.37117569845650   15.25539404453031
C         4.98828736429390   15.73310166174846   13.25219477983550
H         4.62156989379548   16.64542644116396   12.80622361042400
C         5.41150339255516   14.71842992438575   12.35339453181695
C         3.53973337789227   15.95734260901108    8.95935956697664
H         3.25792376036568   16.05671665478366   10.01579824843664
H         2.71268442984863   16.32568067290014    8.33837570531255
H         4.42564325111820   16.58128630648770    8.78202426956090

