44
CSD_code = IGEXID | q = 0 | S = 0 | Stoichiometry = C20H19ClN2OPt | MND = 4
Pt        3.66565956938643   11.30375763383757    1.31831901468690
Cl        5.70086455916725   12.15649584597793    1.91023208570863
N         3.55688935127635   10.03291744948675    2.83234850934938
N         3.71365063794749   12.52558184946617   -0.21836947090695
O         1.89521998639429   10.62667510280176    0.54101390177111
C         1.27914091508608    9.55881864423259    0.90690037757604
C         1.64004998648661    8.74195343643409    2.01917608853010
C         0.87085077432400    7.59283485895778    2.30515632591560
H         1.16338126163616    6.98814737836011    3.15340396928214
C        -0.21467688865665    7.22425839020513    1.55540845356697
C        -0.57049334499240    8.03783319568730    0.46606556940271
H        -1.42672895665826    7.76420104965708   -0.13467530125723
C         0.14242343147709    9.16047253508007    0.15662269628675
H        -0.13341383486690    9.78266180327189   -0.68185875464168
C         2.71506575321658    9.04407394298181    2.89472880432711
H         2.80795585583106    8.37400717737590    3.75239602770618
C         4.48193525546002   10.14614920457374    3.89622966432722
C         4.52136289197500   11.32572364803551    4.63449910823670
H         3.85467235782685   12.13486754064463    4.36684480738121
C         5.40945557577593   11.45178943124243    5.68418502787500
H         5.44118790635806   12.37077263220864    6.24978410422166
C         6.26173804005979   10.40752935154246    6.00661382605013
H         6.96156230387518   10.51290712022241    6.82202186658481
C         6.22059020430058    9.23277245406750    5.27650946254456
H         6.88799630772667    8.41912672954063    5.51955104611742
C         5.32890653847958    9.09464973382033    4.22767895437744
H         5.30833072959982    8.18779572534936    3.63997952435023
C        -1.01855990575817    5.99754213418399    1.86584038820126
H        -0.63607196831814    5.49624453081401    2.75123185166322
H        -0.98447521080337    5.29944332429191    1.02974837145095
H        -2.06198159728010    6.25975958756498    2.03774891357554
C         2.70896295692229   13.38049684751408   -0.40732441029358
H         1.91783617381325   13.36812566382846    0.33282645022989
C         2.65733217831389   14.23910865480234   -1.48787845117553
H         1.82294510775411   14.91518624454903   -1.59390682029939
C         3.68073287953216   14.22679667285614   -2.43041946641823
C         4.71966384650425   13.32318300153917   -2.22030710860737
H         5.54138760444235   13.26564777075659   -2.91725231606938
C         4.70181510728871   12.49849217819250   -1.11375015092264
H         5.50799279413192   11.80115932386867   -0.92427444962004
C         3.68174915748769   15.14316558556618   -3.60860977398820
H         4.47310657414442   15.88423633060002   -3.49928779962055
H         2.73188597477402   15.66244272398145   -3.70199533515763
H         3.87500115855995   14.58669556002945   -4.52375558231748

