63
CSD_code = IGEXIC | q = 0 | S = 0 | Stoichiometry = C31H24AsCl2N2O2Re | MND = 6
Re        1.97060533063400    3.61186105897422    0.84092283970650
O         2.72703309767392    4.87808195384673    0.08263394361304
O         1.41364112479316    2.05243704771228    1.77498816498858
Cl        0.14452581583198    4.71842837069075    1.73632457723615
Cl        0.73909307423065    2.96267026358882   -0.98405591598216
N         2.95943263232374    3.95810412016059    2.77029009642611
N         3.75815338656773    3.66810873525186    4.80744192468130
H         3.96132563622889    3.22536902987610    5.68682246482788
As        3.85166216770706    2.10647165733318    0.00321748076639
C         5.21617446357764    2.03856998705261    1.38905547658627
C         5.84773986394902    3.24762854744743    1.68240568413502
H         5.65979277904248    4.10355417611901    1.03891993470825
C         6.67379067746408    3.35946402534873    2.78465701009032
H         7.15153770317554    4.30209359698441    3.00932813052192
C         6.87362889830706    2.26251247583344    3.60993919626620
H         7.51551249394719    2.34863536337637    4.47455960730950
C         6.24558000821602    1.06021446430059    3.33068731935040
H         6.39527114338326    0.20803927331596    3.97786244943672
C         5.41109817086484    0.94830033178572    2.23016984620637
H         4.89518673145038    0.01503742180398    2.02780149417765
C         4.83329501524336    2.70013627349404   -1.56691417867293
C         4.08627111968896    3.24577254370029   -2.60602567737144
H         3.01082721397043    3.34188467169776   -2.48933801129782
C         4.71890541706424    3.67408874290665   -3.76001842965364
H         4.13973360675465    4.10187926722640   -4.56466103281695
C         6.09488578984331    3.56046032912108   -3.87896353694605
H         6.58905438079042    3.89884616795602   -4.77770450270527
C         6.84112578201523    3.01984179071954   -2.84449930830132
H         7.91446063625746    2.93735805786402   -2.93732177515250
C         6.21434457799670    2.58820118154263   -1.68764638792465
H         6.79538246780223    2.17398963057797   -0.86865665105467
C         3.52733024112656    0.23740575334679   -0.44534361875601
C         2.22863934750646   -0.21869287366566   -0.63039427164715
H         1.40169536469623    0.47731887274293   -0.53878834561626
C         2.00362437261410   -1.54634193924661   -0.95758447874066
H         0.99364175704800   -1.90076806481323   -1.10217175724228
C         3.07051464440337   -2.41598269751618   -1.10559839544396
H         2.89339865573338   -3.45092664587792   -1.35851935216460
C         4.36935048040427   -1.95908545108159   -0.94130347065114
H         5.20150229375599   -2.63589998477673   -1.07062259484658
C         4.60030003885803   -0.63484809323281   -0.61501494101644
H         5.61398283010181   -0.26314823219453   -0.49304742299827
C         1.78951252624990    1.26296524359207    2.73157235412734
C         1.33112073366546   -0.06649905341774    2.77774679150705
H         0.65092245219634   -0.39136239199974    2.00502496029547
C         1.74404069736829   -0.92258055633387    3.77004242089128
H         1.38674457852745   -1.94141686851421    3.78028300638755
C         2.62205178153046   -0.48642966505255    4.75728625172586
H         2.94894042106533   -1.16496662816335    5.52986070775660
C         3.06934991886898    0.81590472272139    4.74973516871059
H         3.75924511077836    1.13869599150329    5.51636149369747
C         2.67035008476428    1.71388631219955    3.75610989988651
C         3.11295503748733    3.08725311397346    3.75650592462705
C         4.02145791042653    4.97330351890729    4.47892452433174
C         4.65010547717522    6.00648143372672    5.15468477688584
H         5.04366198198383    5.87076515697356    6.15031643113288
C         4.74228535212239    7.21691568823189    4.49631950942693
H         5.22149125484668    8.04925495436418    4.98909277298611
C         4.22442794955059    7.39565971048293    3.21074460591291
H         4.31502494085772    8.36372341359792    2.74290836650935
C         3.59656609968728    6.37245051138737    2.53271073513728
H         3.18253273543328    6.49243599543542    1.54229031112999
C         3.50256172240951    5.14658819518243    3.18044540272822

