95
CSD_code = IGICAC | q = 1 | S = 0 | Stoichiometry = C40H51OPRhSi(1+) | MND = 8
Rh        4.38241581503365   15.45833742236444    9.78522405051308
P         4.00435140735249   13.50713586017706    8.69240621888691
Si        5.07485671981823   13.06821109809987   13.80417782536579
O         2.89387174631180   15.52301923972911   11.32508485258852
C         5.45167066958932   15.92826941742277    8.02391865055967
C         4.24893705993973   16.71591695751975    7.93835270214187
H         3.51554600922366   16.63955962816018    7.15096868762011
C         4.21798948417385   17.60945501223073    9.01619155048275
C         5.50900009020228   17.52756274406372    9.69886417505960
C         6.30674704705410   16.53943340477117    9.02373694723857
C         7.63533826945304   16.32592324518442    9.40924766888760
H         8.24898292863264   15.60026983636367    8.89602147843245
C         8.15474969245840   17.09469152428157   10.42684969299872
H         9.18582203549178   16.96578722325127   10.71751122753834
C         7.37872789202391   18.05360654350434   11.08792742418219
H         7.82860697338425   18.63739909454874   11.87588971296478
C         6.06465656825311   18.27817787092644   10.74189429550436
H         5.47950825619141   19.03072461439799   11.24909851381283
C         5.82924643590001   14.83724373841994    7.06062711172331
H         6.00246360173074   15.26480159612577    6.06813218742991
H         6.76254064779278   14.37789805904963    7.39251761736551
C         4.71188497327014   13.79047608881804    6.99013140378442
H         5.05494268363638   12.85074112128205    6.55063060492071
H         3.88343750865436   14.16442003580873    6.38097200679123
C         3.14976739176606   18.59740449174206    9.36030363996331
H         3.14047075857764   18.69245911773110   10.45468946849994
C         3.43556906346341   20.02595186290902    8.81669704185449
H         4.35429856542033   20.38254352464811    9.29799236571920
C         2.29233601652453   20.91717524546860    9.32516753850957
H         2.34779452824847   20.94599913064287   10.41725547401545
H         2.43224216596742   21.93787178421411    8.97354548913519
C         0.90706627272943   20.41366880204475    8.92933437555052
H         0.15201445999137   21.09495451624850    9.32583279403113
H         0.80329036672677   20.39996445895074    7.84353297754394
C         0.66477980411944   19.00505899855946    9.46584489194414
H         0.71965175858341   19.03046096307516   10.56048064952947
C         1.76699011661082   18.08835815649009    8.94250466046785
H         1.63129825671306   17.08015973291784    9.34692240761557
H         1.68971661333310   18.03097390402553    7.85547221767832
C         3.69007477620238   20.07558568056699    7.29166338166164
H         3.11594153032552   19.28071258464507    6.80589108520626
C         3.29246523797671   21.40286541519257    6.64261289019872
H         2.22460577994728   21.58769170021587    6.69764399119133
H         3.57179890631146   21.38431708241971    5.59129600903857
H         3.81731292136684   22.23127673231356    7.11240933014609
C         5.17635511159086   19.85594802183011    6.99206251405269
H         5.56286319543720   18.94810901502426    7.44397415920925
H         5.75741296008391   20.69445848246088    7.37084304156848
H         5.33707098010190   19.79415045795291    5.91795039486821
C        -0.71081693410641   18.48458526342182    9.06074691965815
H        -0.87634900126296   17.48606534439542    9.45999601688385
H        -0.79962909091255   18.44105883921874    7.97718537539456
H        -1.49162484575169   19.13873252596489    9.44016021722261
C         2.28409768503297   13.05232102536298    8.34131981633277
C         1.25117574405585   13.86875812294988    8.78566506310114
H         1.48714857668367   14.74364099976209    9.37921817635228
C        -0.06012114134193   13.55185565785271    8.47665589417708
H        -0.86418074046419   14.18470919392008    8.82019143141896
C        -0.33878944729767   12.42206334020280    7.72488146226129
H        -1.36091320938283   12.17520041706881    7.48263439224536
C         0.69130371672593   11.60438149983731    7.28349435481018
H         0.46984822120316   10.72366566140590    6.70034890227785
C         2.00332747425560   11.91460405450635    7.58833287234120
H         2.81014873852408   11.27801049301790    7.25247153376298
C         4.73355082907402   11.96272390645105    9.30001816575496
C         3.99008639131112   11.17472713032246   10.17596604874408
H         2.97944946526818   11.46972501724480   10.42463551962946
C         4.53828039692578   10.02243872764556   10.70624302091545
H         3.95711853967303    9.40554676792896   11.37426408868867
C         5.83498449194529    9.65622043557160   10.37873065896857
H         6.26147926557647    8.75550142070610   10.79208978641046
C         6.58506013776297   10.44769926157940    9.52393547519836
H         7.59643440261382   10.16509748741717    9.27398888469829
C         6.04093119362744   11.60246111453619    8.99009773717468
H         6.63232458787337   12.21975028976825    8.32972457023019
C         2.14226465882862   14.66859925400039   13.40213743486341
H         1.28813441482796   15.31140077941670   13.20473878785974
H         2.59274751117053   14.93577243721907   14.35421249143424
H         1.81196307621629   13.63476357856773   13.46856390871663
C         3.14905276587112   14.80158260620261   12.31053071137004
C         4.41877778391454   14.12016331378694   12.34431588781739
C         5.12984146983910   14.29584662134742   11.21425434800591
H         6.11775029768484   13.85365065985984   11.10264772648463
C         3.79877338530316   11.70596610178123   14.20244360372531
H         4.29450582467342   10.85555413425966   14.65943983208790
H         3.29519616835878   11.34631104983484   13.31010705033925
H         3.04186340528176   12.04462082761704   14.90247347780731
C         6.70205933504969   12.26409053049529   13.22945157431469
H         7.09469614577619   11.61275650143631   14.00383105808635
H         7.46673249683645   13.00517298886047   13.01708230722194
H         6.56117343577449   11.65982378038939   12.33756916862120
C         5.39129772666940   14.21761815476917   15.29151785296014
H         5.98359124419079   13.70571602429068   16.04348351010995
H         4.47333221629529   14.53859775534863   15.77455199106062
H         5.93813913612765   15.10926766366784   14.99805149648158

