78
CSD_code = IGIGIQ | q = 1 | S = 0 | Stoichiometry = C25H46FeN3OP2(1+) | MND = 6
Fe        1.23847634282495    5.85377341028140   13.48719053962051
H         0.00563527477017    5.24124729762491   13.83117336049648
P         0.18728748627217    5.98079240497612   11.53406975257714
P         1.96277750588127    5.11978463242819   15.44915157232784
O         0.09217893815544    8.28096230999722   14.55854229328907
N         1.87287126256847    4.12467955035755   12.85568051705814
N         2.92963862769264    1.76212430092477   11.85623199801387
N         2.83617084487413    6.62395643734905   13.01556759084854
C         3.33717505321233    4.05299066880100   14.79062615689595
H         4.18284715232147    4.72255583751719   14.60248776982885
H         3.66442758472041    3.26899573838255   15.47741152920775
C         2.85948017141367    3.47721645510244   13.49944282373620
C         3.38032648227717    2.29881293633894   12.97454600045829
H         4.18685775361611    1.77564543471636   13.46803390373137
C         1.91142974493428    2.36263118781356   11.26949523552962
H         1.52358021675126    1.88986283624418   10.37895267047325
C         1.35593950912496    3.53947240019062   11.76161122387266
C         0.14773115188659    4.16644086904236   11.16013271353799
H        -0.72365631899262    3.77763664441445   11.69945674812042
H         0.03552198310249    3.92620314999484   10.10182518984932
C        -1.64870022501006    6.45213514457439   11.45874977272244
C        -2.41601010253934    5.74593732648364   10.33822532476640
H        -2.47092280554503    4.67289274461830   10.50497793626230
H        -1.99253495533473    5.92535973473423    9.35759910887030
H        -3.43616526400392    6.12667533778642   10.32858842398680
C        -1.75970940728595    7.97084278262377   11.31463996215128
H        -2.77801287926830    8.28555012716000   11.53583880324130
H        -1.52760875165825    8.29949789539533   10.30554963849575
H        -1.09362787657294    8.47211894156225   12.01595559725299
C        -2.29255091483443    6.05510681884126   12.78870898209388
H        -3.36100649723725    6.25677834121876   12.74411670617764
H        -1.87287043469991    6.62561171179726   13.61205415806065
H        -2.16284898382626    4.99635701294465   13.00378656658430
C         1.10968455092187    6.67822449612831   10.02222150878796
C         1.48446257901019    8.12740228105094   10.34697585570137
H         2.26358094438371    8.47315639210373    9.66945876355717
H         1.84544588952321    8.21689048435551   11.37012473337892
H         0.63286168021014    8.79066410388352   10.23120759204881
C         0.36608446399326    6.63005654876155    8.68922646349359
H         1.04932709040851    6.94748901691662    7.90209856575034
H        -0.48425197909127    7.30454417607897    8.66951381031972
H         0.03405661583381    5.62323570004687    8.44565476017621
C         2.38183940378113    5.83344310690434    9.87148229280723
H         2.16136646893558    4.85843191678700    9.44206958426355
H         2.88608882083560    5.68580606378372   10.82327726583386
H         3.07521888011547    6.33496105781516    9.19805810249422
C         0.82003304189699    3.89207430691117   16.34133622609335
C         1.41708837158369    3.27089796116179   17.60269059017816
H         1.52027249968704    3.99558731801825   18.40442890073914
H         2.38137614415957    2.80564231256653   17.40770163419838
H         0.74417110164966    2.49164037153118   17.95788731893766
C        -0.48635660961629    4.61632244768479   16.67271487540882
H        -1.23919514792542    3.89287243908292   16.97906770327021
H        -0.85675348188083    5.14311550153860   15.79525561141624
H        -0.36657066330682    5.33122306949050   17.47945619596267
C         0.49782759506073    2.76027807860002   15.36090944617568
H         1.37178220174856    2.15299165749312   15.13300095793923
H         0.08335322891944    3.15601557777320   14.43655413823320
H        -0.25055567717959    2.10612442357844   15.80463023175575
C         2.86333735998242    6.21532580039602   16.71322634908619
C         3.92836915841135    5.48558921452441   17.53265062825206
H         4.38158577041163    6.19892928273196   18.21964094391198
H         4.72077682340428    5.09099549352018   16.90113359508874
H         3.52073232572304    4.67626554521147   18.12602291032354
C         3.55658183649761    7.32727897856513   15.92152764464635
H         4.02558085908456    8.02397980178147   16.61411205670342
H         2.83974239220805    7.87934576163282   15.31670345118690
H         4.33542292841500    6.93065167112446   15.27350946833064
C         1.82914808680058    6.87115391550047   17.62837919786753
H         1.43467273558000    6.17192495403167   18.35960007273225
H         1.00610343323261    7.28024403511333   17.04364524764324
H         2.29155030386544    7.69018231989755   18.17693028465743
C         3.81347647921850    7.15332162803683   12.70757376287515
C         5.01199640599868    7.82810775818692   12.32088489743109
H         5.19273377467200    8.66724901864891   12.99318899767063
H         4.91159968278933    8.20496214494630   11.30290881492691
H         5.86174674468814    7.14652594014476   12.36447395195586
C         0.57567721583190    7.34382750391455   14.11476402567337

