71
CSD_code = IGIGUC | q = 0 | S = 0 | Stoichiometry = C22H42Br2FeN2P2 | MND = 5
Br        0.37013740591384    9.03928080761316    6.06581688370776
Br       -0.26037605734112   12.08434641246248    4.46623093137620
Fe        0.48189288674720    9.97275992376282    3.90627510017756
P        -1.51901906632348    9.24033808003838    3.11608322161641
P         2.61126541268417   10.59186098169806    4.15004891531250
N         1.19462388340054    8.32783429993309    3.30140025004796
N         2.14578624456978    5.74331062321215    2.76153017760531
C        -0.83856823947087    7.87683711582073    2.05038179977345
H        -1.53039716695821    7.04358296902825    1.92660170962735
H        -0.63369103211308    8.29815772416898    1.06065015409947
C         0.46511043109032    7.42402698902677    2.61147187584667
C         0.94600854304087    6.14739248207957    2.37379585337701
H         0.34295716412207    5.42327208992366    1.84474928965111
C         2.88312539574211    6.64789185793568    3.38639621390604
H         3.87344839627094    6.33658276939539    3.68715910727708
C         2.43476517413686    7.92796565192219    3.66923019874352
C         3.31140881165942    8.89873020045939    4.38835781294566
H         4.35512868655332    8.78701023039196    4.08701927608743
H         3.23846987779283    8.70092507931090    5.46379186891760
C        -2.85750158547340    8.35469139600143    4.12011387068408
C        -4.12317223345766    7.99715302654338    3.34341942258673
H        -4.74710434493370    7.36451910911960    3.97426595994562
H        -3.89766220849256    7.43977989651965    2.43614401486683
H        -4.70446633724352    8.87933069190401    3.09037095749310
C        -3.20618219040419    9.28525570438757    5.28473647916479
H        -2.34052895484654    9.44221799878769    5.92255855627451
H        -3.99366004845461    8.84306598397745    5.89250758904542
H        -3.54992555121914   10.25527314096693    4.93240223709807
C        -2.25098420645413    7.05718757329094    4.66634987616373
H        -2.87500898391629    6.68584038175098    5.47692408051232
H        -1.25556717059882    7.21567952194379    5.07118551123785
H        -2.19859057390909    6.28145274700431    3.90476689639698
C        -2.30843358337591   10.32848983528172    1.75800952906644
C        -3.12352128593330    9.59157328233780    0.69081774751338
H        -3.28344085730043   10.27090646807419   -0.14668503269605
H        -4.09955893943028    9.29537096665483    1.05740871937665
H        -2.61721349021552    8.71050014237794    0.30419812772628
C        -3.18409750093795   11.40708223547373    2.39654736781298
H        -3.50419126222085   12.11659082052870    1.63413306670103
H        -2.64210867315130   11.95950549594250    3.15979269129735
H        -4.07659774409400   10.97818329592616    2.84468757140282
C        -1.12253755579150   11.00804101764528    1.05725231834745
H        -0.45171642854777   11.47582546863008    1.77790864831423
H        -1.48427536133586   11.79339369034524    0.39548375786315
H        -0.55062549641327   10.30678870293111    0.44932460071608
C         3.48905505058496   11.58403691190562    5.50963512530431
C         3.45734023008626   13.07725273245339    5.18164759447582
H         3.73150197359771   13.64433645893089    6.07017800700174
H         2.45623627442474   13.38779186434405    4.88861258754585
H         4.16452572785912   13.33603341959315    4.39754444578173
C         4.92906167134739   11.12337348830425    5.74991819327283
H         5.38636944429858   11.79425537668155    6.47623871205428
H         5.53512676107635   11.14735180038030    4.84986575593013
H         4.96122023320718   10.12002374934257    6.16763206834019
C         2.69490564484865   11.37557655840927    6.80125297905488
H         1.67093559498897   11.72435340691098    6.69306676152846
H         3.15712241692667   11.94591115854189    7.60537901155774
H         2.67423139059290   10.33211879769988    7.10521110820482
C         3.27252742933947   11.11901512851824    2.43454145290051
C         4.79181012340092   11.20283919512820    2.31583342474206
H         5.19684565745683   12.01865822427030    2.90775905188431
H         5.05609143134511   11.39100754729635    1.27490258681461
H         5.27140512669356   10.27218970592043    2.61409022685611
C         2.64492448322862   12.46038929247103    2.04278354056094
H         2.77262141835561   12.62869801224566    0.97365686874386
H         3.10082225156824   13.29434547498954    2.56454114541473
H         1.57768934863185   12.47460727310425    2.25821990067311
C         2.76583886435074   10.07281539689501    1.43501518725925
H         3.02238948583265   10.37823432453303    0.42080411618272
H         1.67789388226509    9.98236683687328    1.48953862686989
H         3.20940390032015    9.09391298174752    1.60851631600083

