104
CSD_code = IGIJEO | q = 1 | S = 0 | Stoichiometry = C48H47ClN4P3Pd(1+) | MND = 5
Pd        9.22680410053418    2.09176886563066   13.17349550999586
P         8.57840071572679    1.22543366336793   11.15909898234571
P         7.24874341297665    1.13434249641496   14.05992074559759
P         9.99476596806253    1.96951814218583   15.29343977210672
Cl        3.77377638395318    3.10724079513039   11.29481842057326
N         9.69000103726235    4.63603266714418   12.71815212681665
N         8.73320324988542    5.58976800961444   12.65743599715567
H         8.95200302196710    6.57669817215444   12.54019784251175
N         7.29756785382103    3.82447921905785   12.55135251237814
N         6.18176781773702    3.24769877391067   12.22946368730982
C        11.16190349013985    2.37276307113372   12.66597133859649
C        11.94995700521309    1.24042367180189   12.54568895278666
H        11.48998147388741    0.25461172316512   12.60758468194432
C        13.32353853020653    1.31110728030669   12.34903449165310
C        13.93333237957625    2.56894869395441   12.29366027506565
C        13.15339747007393    3.70305024256498   12.42379293960846
H        13.63949977764715    4.66560963055901   12.36790982206875
C        11.77053265264946    3.63763234482246   12.61884118520907
C        10.95372137914999    4.84876104438421   12.72600225863222
C         7.47304436670894    5.14061619889456   12.39840056256531
C         6.41462003238239    5.97618555611279   11.98550581060499
H         6.53785292202711    7.04677484371208   11.92368778112965
C         5.23400550854309    5.36363816235300   11.65428689052973
H         4.37424379365554    5.91812355965194   11.31559669557901
C         5.18195880643527    3.96313221136588   11.76444816811294
C        14.13048250144013    0.06022263346686   12.21639077475852
H        14.65703532486579    0.04472739130498   11.26295693278713
H        13.49379757230357   -0.81896830133588   12.27208557117364
H        14.87787768238812    0.00307804564508   13.00724649285961
C        15.41449871177227    2.68817364583305   12.10932353128611
H        15.72121277768910    3.73047307401469   12.09084454376319
H        15.72570389042314    2.21973672803815   11.17659748128987
H        15.93966379312928    2.18718298491708   12.92170123654938
C        11.59929773838445    6.20427608259011   12.78393553719476
H        10.90531982228818    6.96444916434735   13.13818753862543
H        11.96136719431438    6.49524284539791   11.79790878774602
H        12.44670924734175    6.18443671406560   13.46448789012581
C         7.15527997659218    0.10176967056464   11.52956613877597
H         6.24998908324217    0.70473230891918   11.40750669464102
H         7.12742370917369   -0.73850710759421   10.82858670523182
C         7.26078523754805   -0.36686696238365   12.98198472179454
H         8.22987462062792   -0.85898416388494   13.15021474770722
H         6.46356847051671   -1.06582219631685   13.25311448545008
C         7.73729550189966    0.42922883634283   15.71276351855739
H         7.30858657687502    1.08895822596924   16.47487754764534
H         7.28870530667991   -0.56253915448053   15.83525300517533
C         9.25496016085674    0.37549371105647   15.87354298543741
H         9.67475967281529   -0.41691157614938   15.24117470095112
H         9.53824621555869    0.18251226591322   16.91402995727241
C         5.49216010463721    1.48270249563031   14.37956660713221
C         4.43090712576373    0.82850803268509   13.76691262771443
H         4.60267059831618    0.02980898077556   13.06182235961918
C         3.12901945742315    1.19919540333734   14.05659806909650
H         2.30859828909754    0.68192069813139   13.58151873802541
C         2.87398791568366    2.23170084374178   14.94235718083976
H         1.85661855412123    2.51940555069410   15.15922187019375
C         3.92903907067847    2.90004284444039   15.54358042383112
H         3.73554965293295    3.71046898437282   16.23089321399664
C         5.22900441653736    2.53002881546113   15.26065372594671
H         6.05591187340480    3.05721852038615   15.72001568170697
C         9.33677990463903    3.17654205798037   16.47152899848450
C         9.68394952223983    3.16253477764553   17.81864477370765
H        10.38983436525934    2.42996037975591   18.18579916089907
C         9.12772567376463    4.09500862484553   18.67478775056555
H         9.39095998140792    4.08842531571162   19.72164705008658
C         8.23366602090399    5.03954021674721   18.19216780328363
H         7.80437236408659    5.76464946380906   18.86674412267062
C         7.89398581930513    5.05898546502837   16.84878012999561
H         7.19921827728380    5.79842376814895   16.47702089106907
C         8.44632839896450    4.12784798168612   15.98688357020335
H         8.20198943398633    4.11530618527243   14.92769710348101
C        11.75698171470673    1.87262989143883   15.69574228877183
C        12.45622494483369    0.67344635526856   15.77015148433582
H        11.93678167738998   -0.26980346602712   15.68555814872932
C        13.82746380638257    0.68557721034965   15.95475712565042
H        14.36636871652432   -0.24791124538989   16.02093819955404
C        14.50856904234621    1.88709546593361   16.05045009334709
H        15.57899095122572    1.89130610175119   16.19002207967913
C        13.81679438897494    3.08541463573825   15.96812828256037
H        14.34847466834831    4.02204790565596   16.04264217133021
C        12.44813841966583    3.07936106394108   15.78765303261182
H        11.89591222972200    4.00828951988294   15.71729095579690
C         9.81401671323488    0.18549731691439   10.31951023065350
C         9.90054641671853   -1.19035380865554   10.50395108959325
H         9.16438044893936   -1.71561133559399   11.09615983970217
C        10.93795720342407   -1.90307520667064    9.92747091221078
H        10.99559789843151   -2.97249257572797   10.06893925493642
C        11.90059489964569   -1.25083701192157    9.17625769354213
H        12.70831682346618   -1.81142764264058    8.73102616034381
C        11.82705792001648    0.12207020337533    9.00113498983304
H        12.57865598274498    0.63468922918251    8.41987112798293
C        10.79464269192497    0.83783760486407    9.57451588798462
H        10.74004307847388    1.91123479224689    9.45139028625633
C         7.97007582174824    2.29357452077974    9.82627162278513
C         8.53685707335101    3.56011396068543    9.72097644797820
H         9.32194815574098    3.83417747805848   10.41667704777111
C         8.08813335932524    4.44636870014772    8.75993057622743
H         8.52744797479657    5.43039902590955    8.68110921841623
C         7.06908950285735    4.07174151591955    7.89872659881796
H         6.71002769234159    4.76486328897004    7.15318267447085
C         6.51313207964700    2.80630122897677    7.99113233964667
H         5.72540353182825    2.51365053165910    7.31337157170511
C         6.96139714501014    1.91407201183347    8.94926365772765
H         6.52623626823816    0.92767342062420    9.00888607965506

