124
CSD_code = IGIMAM | q = 0 | S = 0 | Stoichiometry = C54H64Cl2NOPPd | MND = 4
Pd       10.90684123366053    5.67804542458260    5.46827023576455
P         9.28832802645262    4.22293341806497    4.72941344178666
Cl        9.94722307570490    7.31639855768841    4.29935493129644
Cl       12.56549106560307    7.09437392342355    6.08303001421158
N        11.82799016811237    4.12764175561779    6.51184600662945
O        11.54372278167934    2.73433595058197    8.22010225431763
C        11.12381367359527    3.78841135693718    7.51543009834959
C        12.96995504335112    3.24145343194292    6.40406383274525
C        12.72347225920906    2.25330539297574    7.57201020809334
C        14.29696236070804    4.02228414065830    6.44035257156450
C        14.50563032544833    4.76546127923427    7.75589300747483
C        15.46285328887898    3.08819554362497    6.13121355734426
C         9.84595230781823    4.44916683929334    7.82781729563645
C         9.80278499667969    5.78997122273804    8.27412749485837
C         8.58616127115936    6.37009535265443    8.51118437937944
C         7.38445809446929    5.64988169012464    8.32430321340054
C         7.42838964057403    4.32674682369161    7.80876313374069
C         8.69159281380226    3.74663647824976    7.53709785315611
C         6.12929523491997    6.21362014378952    8.63216212956757
C         4.97614144553490    5.50867629208797    8.42672106593171
C         5.02198513995200    4.21585836025823    7.88470994361261
C         6.22108271783448    3.63582153790757    7.57999883959671
C         9.23850267269069    2.55252315393889    5.48167036239750
C         9.53570576364176    1.38406358144201    4.75659166149106
C         9.44560488417465    0.15876873633849    5.35420412687363
C         9.05590961504995    0.03660793327916    6.70484615097365
C         8.76748812787935    1.21009028735179    7.45192462500648
C         8.86831484469329    2.46605162371455    6.81293594411562
C         8.95848442623197   -1.21701909844649    7.34398922597266
C         8.59932650270687   -1.30450688775726    8.65944600790573
C         8.32353020406561   -0.14265275281197    9.39850546167350
C         8.40615580604035    1.08772734985641    8.81100575464295
C         9.82994190611002    3.94882245736636    3.01055584874855
C        11.16985527398930    4.23457988316579    2.78344206290117
C        11.69668221655197    4.26334855423114    1.50097324015805
C        10.85469728613545    3.91802647957567    0.45319638656373
C         9.51559623801787    3.58151262120442    0.65334106574568
C         9.00205272291989    3.62626320671226    1.94171156105343
C        13.13034607313197    4.73975588829665    1.33761909328047
C         8.65647934755589    3.21806226153572   -0.54967533735595
C        13.21943821421803    6.16794306252637    1.89964584340054
C        14.06998734588906    3.81463282030429    2.12459956698049
C        13.57896409078873    4.75935446812622   -0.12528908599304
C         9.27704093358371    2.00956586377527   -1.26512332907871
C         8.60113314925246    4.41907466571192   -1.50348545553143
C         7.22163442158815    2.85363912465029   -0.15747923404971
C         7.50208974760995    4.53537513546969    4.60485499780634
C         7.02459339881002    5.81628406605394    4.82558500123730
C         5.67348726782105    6.09599492568200    4.66969823126859
C         4.83302019395086    5.05318861276288    4.30070356551233
C         5.28531342568853    3.75091340597047    4.10162133371022
C         6.63771190139748    3.49973538696049    4.26315051384378
C         4.29599563408904    2.66720957898570    3.69548152549041
C         5.13869297498902    7.51236005315392    4.80587234641611
C         3.22566302064740    2.52494621159202    4.78555295667296
C         4.96328706322510    1.30196188098098    3.50433885945128
C         3.63742885213251    3.06469146009593    2.36676798134066
C         4.99689564384693    8.08487661358431    3.38805580503939
C         3.77280521630130    7.52110996747674    5.50503232603305
C         6.09199390298271    8.40497638497727    5.60574692534404
H        12.90508288817068    2.71925822179511    5.43893615301635
H        12.52821042533236    1.23445248652159    7.22627444888394
H        13.53424967673156    2.23777017094549    8.30183752078992
H        14.22197254197976    4.78151558142895    5.65149509149675
H        13.70011772196859    5.48016388082383    7.90638617623297
H        15.43599026150872    5.32452436718762    7.70847757103934
H        14.55736979336191    4.09030249268696    8.60781519791673
H        15.32237805959283    2.59124586598310    5.17336520052094
H        15.56478701787076    2.32615969813982    6.90169270406723
H        16.38810719486867    3.65621368836061    6.08835343691681
H        10.72839289113241    6.32647214566451    8.45896256946276
H         8.53036501958121    7.39377161637543    8.85088038274122
H         6.09704016257604    7.21098234124176    9.04685251221859
H         4.02038110948018    5.94088612451727    8.68549273782517
H         4.09936184372869    3.68074350628219    7.71787505362486
H         6.26336216011393    2.63649463649946    7.17226077516578
H         9.83613697682862    1.47507769638660    3.72134933220575
H         9.67421498438265   -0.73915245841246    4.79737477341724
H         9.17580847877755   -2.10754855045392    6.77140804728776
H         8.52773388913524   -2.26831829298211    9.14143175638878
H         8.04585719153001   -0.23060958573496   10.43833373765452
H         8.19746247859174    1.98520365808282    9.37452538029691
H        11.80919581565853    4.48723380119047    3.63704717889498
H        11.23749259581539    3.92898327546874   -0.55355684042101
H         7.95840599793612    3.43956499145048    2.13245682222855
H        14.23755733690357    6.54163626674258    1.81522010010909
H        12.92792016131259    6.21647096278260    2.95176305142703
H        12.55934373266983    6.83115126213075    1.34463688262405
H        13.95523430795495    2.78297055451891    1.79498768016022
H        13.86748454738024    3.86371684607228    3.19159185721377
H        15.10377479043276    4.11387842321046    1.96707796231458
H        13.54849237272940    3.76111407708733   -0.55813650586696
H        14.60269943461226    5.12199175797226   -0.18738088151624
H        12.95267420584110    5.42464512028730   -0.71497948568956
H         8.66606143383777    1.72655340712604   -2.11957647509338
H         9.33647814760476    1.15989197472395   -0.58767285985584
H        10.27845398831668    2.23006705321748   -1.62357600100684
H         7.96046994550239    4.19370846291287   -2.35348437747087
H         9.58800911061251    4.67292829863175   -1.87972755578320
H         8.19967191893232    5.28827910182712   -0.98718830958892
H         6.65865397796016    2.58667252023433   -1.04971371244960
H         6.72114516103651    3.69515950815591    0.31640175729445
H         7.20500825908997    2.00011381033385    0.51728549505232
H         7.73469857681806    6.58334121842521    5.09137271721056
H         3.78479906683235    5.25912305315946    4.15552221744434
H         7.04026372457361    2.50730138075728    4.13159280530981
H         2.70752185725622    3.46409472987812    4.95793894078252
H         3.68480983887024    2.20979318891937    5.72013836036668
H         2.49053385240035    1.77757957865844    4.49385724561699
H         5.70704514558335    1.33648181307701    2.71153250763542
H         4.21065074470898    0.56762927850569    3.22430079633808
H         5.43773688169056    0.96178171579141    4.42257503482468
H         3.08289608444297    3.99401046415877    2.46056315682815
H         2.94702625343682    2.28846715022840    2.04341237098666
H         4.39368895168494    3.19528279584447    1.59561394891277
H         4.31902147795523    7.47853794514708    2.79060606267699
H         5.96639037848166    8.10314774978241    2.89575365961911
H         4.60922800729442    9.10034224331764    3.42967441606510
H         2.99710782416869    7.07988697678892    4.88456007081558
H         3.47559578956323    8.54482739105147    5.72152496877026
H         3.82699882648918    6.97051865569289    6.44113632641699
H         5.63872979332142    9.38298622013403    5.75428834705869
H         7.03235613580229    8.55227048962435    5.08221443396873
H         6.29571350446934    7.96678130891348    6.57978584469255

