84
CSD_code = IGIMIU | q = 0 | S = 0 | Stoichiometry = C34H47CoN2 | MND = 8
Co        4.14455853696813    0.39537382002900   16.58463590766146
N         5.16458570233629    1.27160439560743   13.92073685677767
N         3.09699271055654    1.77168496359665   14.18915252093978
C         2.74343762759374    1.65485851235575   17.72865169846170
C         4.03459754356437    2.25248982784493   17.70593323082661
C         4.93149243343780    1.38112225497248   18.33966592001185
C         4.21246631097745    0.22021724157890   18.70954611968157
C         2.85559610314116    0.42023513705071   18.37714106825775
C         5.77995356837347   -0.70355638974882   16.40199660169921
C         3.20260008199161   -1.21934443508358   15.97915081816072
C         4.14230157511722    1.15138494556372   14.81076525213808
C         4.76691566195553    1.94547073303830   12.79282590322848
C         3.46953919056112    2.25862994945498   12.96161046259940
C         6.51162434266475    0.81289101444599   13.95522171325283
C         7.47721220812086    1.56680112497291   14.62769713931085
C         8.80443441559339    1.17623023349847   14.52007552898667
C         9.15916938574510    0.07052566027902   13.77050523354768
C         8.19153328138762   -0.66508708582993   13.11563387143554
C         6.85213834475432   -0.30658584118578   13.19122330997438
C         7.07305792928041    2.78728698653268   15.42154758911295
C         7.04945997239409    4.01921573761192   14.51022710534145
C         7.98026580151463    3.04297678412581   16.62410329505449
C         5.80835068929855   -1.11110734579420   12.44915109499293
C         5.96485358479926   -0.91687129020448   10.93785753662163
C         5.88625771934548   -2.59821942995797   12.80020020059425
C         1.74469012455698    1.96148930098400   14.59970576405380
C         1.37367403783108    3.18547990416286   15.17043860722438
C         0.04103903829212    3.37324977818334   15.51389138991070
C        -0.89730706922939    2.38705267127598   15.28149071750338
C        -0.52864540671896    1.21816586386583   14.64523413866296
C         0.79016442546327    0.99120007939508   14.27371523964443
C         2.36201701002577    4.31888560976417   15.33809592289463
C         2.21512778526417    5.29534476619064   14.16437475210565
C         2.18081680643915    5.08942006824850   16.64820511456471
C         1.14735532382142   -0.21644308830472   13.43684814716777
C         0.35415902180320   -1.46962422899865   13.81085376184937
C         0.90144000708422    0.11156683804377   11.95839575249238
H         1.81521084300243    2.12647489357295   17.45081964803203
H         4.25587526195445    3.26736218005996   17.41270684683946
H         5.95750192521906    1.59629040182812   18.59213888603117
H         4.59416016372409   -0.58607518860276   19.31681949322084
H         5.90133253081311   -1.21890128141510   15.45492424363089
H         2.03959346942480   -0.23572383628417   18.63553083773845
H         5.44015206122710    2.13878391607255   11.98320442773138
H         2.78296227069683    2.77703266061381   12.32487813340784
H         9.57329826855035    1.74142598843295   15.02153992621144
H        10.19738831029821   -0.21752536891911   13.69566931731422
H         8.48318021566666   -1.52484803480442   12.53280346420112
H         6.06298759864348    2.61211659989055   15.80333548543329
H         6.77180616903055    4.90235137886869   15.08193953372634
H         8.03330113445822    4.18585391033196   14.07535879696963
H         6.33281405269115    3.89567348736453   13.70112105669767
H         7.52420536440547    3.78630967432080   17.27476179986435
H         8.12309209843323    2.12855381324097   17.19455167722088
H         8.95315075976281    3.42062709126737   16.31750796886694
H         4.81541965450633   -0.75875891443253   12.74327294693954
H         5.20061469573837   -1.48037282312222   10.40732820453766
H         6.94056123717375   -1.26423498299957   10.60674442021356
H         5.86627279704589    0.13179338221097   10.66685231177815
H         5.07276990492277   -3.13321366317528   12.31483235964913
H         5.79680762852393   -2.73944519139532   13.87425200697162
H         6.82474409487902   -3.03520821982200   12.47010567700862
H        -0.26964891487813    4.30318493823904   15.96305838593101
H        -1.92668992462819    2.54436236835491   15.56817888460598
H        -1.28154242023841    0.48012523127098   14.42065953294745
H         3.37538283149267    3.90733879307040   15.31908576990888
H         2.90434501884317    6.12831794255570   14.28567029464902
H         1.20125555476540    5.68848773251913   14.12642055952768
H         2.42969826831563    4.81239788509128   13.21493588834510
H         3.03014273440590    5.75252320200496   16.80224949184767
H         2.11342341448716    4.41574974317125   17.49745950776221
H         1.28390468090318    5.70361275052869   16.62190890666406
H         2.20914553129587   -0.43315977603328   13.57134894271828
H         0.81219423290075   -2.34098466499007   13.34860556676462
H         0.34654177443878   -1.62126002960462   14.88647997863834
H        -0.67308222415236   -1.40635240483030   13.45949326431021
H         1.11474014437368   -0.76169186815516   11.34597001899540
H        -0.13656362428073    0.39870534470085   11.80180542062920
H         1.53770827546580    0.92609174108233   11.62225288190182
H         2.14361104821518   -0.96496833359863   15.95208858926306
H         3.33852220781207   -2.01605889412102   16.70908085750197
H         3.48489053860615   -1.62386097752337   15.00864928655396
H         6.65480989555416   -0.06955435011723   16.54752219462931
H         5.79138261940244   -1.46386331428641   17.18167101892039

