23
CSD_code = IGIMAN | q = 0 | S = 0 | Stoichiometry = C9H6ClN2O4Re | MND = 6
C        11.47076504854527    1.49367402148849    3.38088465958798
C        10.99740215232634    0.29253422021659    0.84166419419542
C        11.09674149562510    3.14445668569764    1.18093638404782
C         8.20175622949378    2.62385872368014   -0.31557751555634
H         9.08671057363618    3.10078982128492   -0.71632937873839
C         6.95739853882382    2.86454066862251   -0.87304181818614
H         6.86542218954021    3.53813283751425   -1.70935549519249
C         5.84396610142683    2.23490950153915   -0.33238239875026
H         4.85931973979074    2.40898625453938   -0.73797670158565
C         6.02348392541466    1.38225467245618    0.73883274081452
H         5.19155193759382    0.87079026525261    1.19710749152850
C         7.30945548509270    1.19618999740266    1.24676613868961
C         7.57677163439590    0.33782040074799    2.37270479639504
H         6.78743782513090   -0.24416370213191    2.83339219125966
Cl        8.91097093712569    3.21675489156018    3.23005115067860
N         8.38487948521252    1.81615652127587    0.72103463314005
N         8.78152181244903    0.28682798929801    2.81413895414512
O        11.47882350641546   -0.50445676751318    0.17093256533928
O        12.17677361653753    1.43435213161349    4.28033294028148
O        11.54805774218211    4.10613599093307    0.76555641562207
O         8.96629483982953   -0.57434401516823    3.86713413021322
H         9.87505049277313   -0.46992087964953    4.19137866419008
Re       10.13904469063871    1.63051976933972    1.96401525788132

