78
CSD_code = IGIMOA | q = 0 | S = 0 | Stoichiometry = C33H41CoN2O | MND = 7
Co        9.72338494507420    3.59349199237492    4.19835600615900
O        11.07791854209351    5.73143290875254    5.55795040322174
N         9.89661013451940    3.69666101204834    1.22438509329473
N        11.79075522121905    4.04888325852452    2.16973360545853
C         9.04916301836327    1.57605203958157    4.10150478742219
C         7.91773267461237    2.42805411249151    3.90253239932112
C         7.75377161601381    3.20646661063856    5.04759549568550
C         8.82154675948740    2.88792382446326    5.93527484098948
C         9.55886546573398    1.80780003117484    5.38522206084550
C        10.56261718352887    4.89584581326667    4.94571875894835
C        10.47883443683345    3.83433561305408    2.44377743190694
C        10.82636558108506    3.82116267999388    0.22206559778838
C        12.01699530085803    4.04118018566879    0.81689000786809
C         8.50607821908370    3.60776359467099    0.94784992875679
C         7.97226971563229    2.40894734776815    0.46453106686790
C         6.61610711676045    2.36638695805364    0.16950003105939
C         5.81276798296294    3.47342000205316    0.36460633852112
C         6.36042827628493    4.65365516305756    0.82708939768487
C         7.71693876412893    4.75109821690945    1.10834225369550
C         8.83240461277644    1.18449238951677    0.24988201803214
C         8.18086789947224   -0.07866837533501    0.81903810072800
C         9.10685598456768    0.99168988276669   -1.24510999303896
C         8.29881323075493    6.07621042553949    1.54025700942881
C         8.02345712334233    7.15389812155784    0.48815204682092
C         7.75434476449255    6.48559692636840    2.90815884235138
C        12.81260520285504    4.39524617323632    3.09794757953553
C        13.43368365452783    3.39767426962681    3.85598812098542
C        14.46817068098370    3.77028658055112    4.70174437517171
C        14.86792894520899    5.09007428349601    4.79583162610625
C        13.20662040378948    5.73438813123335    3.17676693371802
C        14.24311615319485    6.06152768225757    4.04077891283073
C        13.00604416283421    1.95581601280362    3.71193602738800
C        13.27434801959610    1.12273525637359    4.96317643744273
C        13.70609945107535    1.32845542903238    2.50162913599785
C        12.55225898917175    6.81616561784018    2.34741032122227
C        13.53493537605370    7.34306873703581    1.29717548105793
C        12.03967404480439    7.96187682385040    3.22155131387422
H         9.33159023199542    0.75951158590130    3.45330138084505
H         7.22052089733009    2.35813732125612    3.08232829907835
H         6.92897067901905    3.86609126853747    5.26549659616205
H         8.90178239874996    3.23873975663153    6.95424987779314
H        10.31450567085809    1.23171096980987    5.89409704484557
H        10.55855617414475    3.76300217294266   -0.81221072685821
H        12.99190094715947    4.19396515849330    0.40176684269762
H         6.17958957867939    1.45524748000120   -0.20843277363190
H         4.75632299835510    3.41671055039087    0.14721161639256
H         5.72495636475615    5.51477777326392    0.96367686982769
H         9.78801663966317    1.33201889210228    0.76323482153453
H         8.90586050673947   -0.88989316992359    0.84148023067461
H         7.82094044554885    0.09306298755233    1.82998723123058
H         7.34153018074485   -0.39870992676392    0.20675876573970
H         9.72662366822001    0.11143351717651   -1.40110051675815
H         9.62147180481049    1.85151393783906   -1.66705157974327
H         8.17288946928125    0.85680161976852   -1.78628846697173
H         9.38303514099465    5.97907518433288    1.64160032797029
H         8.52798247316262    8.07668006878390    0.76556642640650
H         8.39002767609378    6.84012370901757   -0.48763438588600
H         6.95991263392704    7.36070411000201    0.40425220114263
H         8.17365552002500    7.44392719427416    3.20504130426157
H         8.04398317184319    5.73857473776312    3.64866603673807
H         6.67066468081868    6.56778073205348    2.89241322152748
H        14.97167400299390    3.02558549385961    5.29595858911873
H        15.67307394005974    5.36128936383477    5.46256997839023
H        14.56461310955400    7.08775399876339    4.12412415731407
H        11.92402071377767    1.94707665609898    3.53868924801606
H        12.76703364396143    0.16394657320548    4.87798686525225
H        14.33649121659946    0.92635802041925    5.09204073653116
H        12.89915480411026    1.63553409266093    5.84514130568292
H        13.40908519514586    0.28729797740549    2.39553202106681
H        14.78638403560617    1.36753818857873    2.62989212404404
H        13.45060504615739    1.85304832677118    1.58373581921510
H        11.68841195022206    6.39541226812110    1.82510020309726
H        13.05291440596230    8.09727153089594    0.67909251491315
H        14.40182896050540    7.79220313633178    1.77525917701747
H        13.88140836796767    6.53925858192965    0.65113724458491
H        11.46868334034441    8.66133524221973    2.61448805911877
H        12.86043349703259    8.50379100954810    3.68305819608622
H        11.39571416330095    7.57721617585423    4.00674332038444

