113
CSD_code = IGIQAS | q = 0 | S = 0 | Stoichiometry = C46H52F4MoN6P4 | MND = 6
C         6.88998603374834   -0.17901417758436    4.05071972480468
H         7.39194113230408    0.26759057737371    4.91457712865476
H         5.96177846684891   -0.64759341395229    4.40589426550563
C         9.08092486154407   -1.12195143209067    3.34390627480533
C         9.72488962123256   -1.91902047502517    2.38429288725052
C        11.08992532605673   -1.95688510808963    2.22208964679748
H        11.53957796007141   -2.58214313657122    1.46883969654808
C        11.85888320106186   -1.15985744228226    3.05363998279206
C        11.27930093282153   -0.35799774235281    4.01823394830953
H        11.90100956826549    0.25143510515868    4.65365173901796
C         9.90527256738422   -0.34334206531278    4.16245846578417
H         9.47278890185662    0.28340193728615    4.92447807623962
C         7.99627134321773    1.64620943210956    2.21468778460735
H         8.68167720382311    1.87266961341126    3.04753245058215
H         8.39238275193258    0.77330638575776    1.67367180785313
C         8.96334643363191    3.42980699044923    0.85628951356789
C         8.80422827831912    4.62488067200117    0.14030114828990
C         9.86097135976543    5.33615237573445   -0.37853090376600
H         9.69522816781910    6.25273786474376   -0.91988574845376
C        11.13687276817932    4.83366082786438   -0.18368657019188
C        11.34997518251152    3.65465602282091    0.50236090535105
H        12.35405202606226    3.28443555590625    0.63297104745591
C        10.26991238187304    2.96010610833221    1.01724919172899
H        10.44766940836777    2.03955512512126    1.54961823770948
C         5.60359312680443    0.26958245387369    1.55947304985315
H         6.36261502914750   -0.29505909704468    1.00641378723555
H         4.89277593852213   -0.43461292396578    2.01247323701299
C         4.86886366975227    1.24143018786086    0.65177330721454
H         4.29276533839468    0.71235255838558   -0.11500985773661
H         5.58676476223960    1.90068389574896    0.15165419121446
C         3.21726569421901    3.50898672730332    0.38085812607535
H         3.09723870904591    2.96532378779020   -0.56224116092506
H         2.24006473900870    3.89065637157545    0.69151569692797
C         4.19419104147289    4.66212106102763    0.20889348655504
H         4.32878243292709    5.19195165042477    1.14969746179700
H         3.81950629084288    5.36978627898181   -0.52852078232810
H         5.16768609313765    4.31320632064683   -0.12695575457763
C         2.25588801057943    1.22464060336279    1.78345241799562
H         2.61204400005586    0.26766825468487    2.18313608578430
H         1.61637078275494    1.67457958041356    2.54986117864371
C         1.44275845947495    0.98681457074811    0.51726405726331
H         0.95161836891363    1.89988515926694    0.19033143392777
H         0.67102663047785    0.24589712079603    0.71977050335388
H         2.06001406223901    0.61159161142394   -0.29657190524548
C         3.47175612042428    6.02240359524902    4.48693796846710
H         2.58612945026367    6.64679743733114    4.60707963002918
H         3.95167394134003    6.25368639696232    3.53579931123442
H         4.19111702703046    6.21685438992120    5.28417330169412
C         2.35841813669191    4.07006703083924    6.20967182507801
C         2.04875788133982    5.14496172370734    7.03614284802611
H         2.23153727893478    6.15871715301518    6.71670830573722
C         1.50808846650924    4.92948949541172    8.29159016401649
H         1.27468867647902    5.77509059054918    8.92272633892271
C         1.26391291309543    3.64349186421999    8.74126109894569
H         0.84213821312997    3.48097889788514    9.72238361179577
C         1.56276469630479    2.56602085826174    7.92459426633168
H         1.37337333451605    1.55728161811785    8.26412011081078
C         2.10591680422475    2.78041780366164    6.67096745283551
H         2.33617606122489    1.93460150390211    6.03807786872943
C         1.45998592218450    4.27852572863157    3.60847380404426
C         0.45453686703869    3.35926344903908    3.89733801637020
H         0.58670569295137    2.65387479272663    4.70576628490926
C        -0.72135448388377    3.34759194656994    3.16906447318336
H        -1.49256931682496    2.62951814324577    3.40812273368067
C        -0.91173297296356    4.25241811677141    2.13818781831205
H        -1.83088903788801    4.24491727980026    1.57113259189015
C         0.08320972256260    5.16765404015341    1.83998528593567
H        -0.05713540472059    5.87696584956113    1.03636859504292
C         1.26197580356176    5.17883430762163    2.56537439067334
H         2.03162631439529    5.89298588067776    2.31121157499807
C         5.42148954509580    1.57299092979575    7.09257965104091
H         5.85528826420532    1.74796664375547    8.07655874353282
H         5.74937326406244    0.60981793743511    6.70023634181852
H         4.33522342307232    1.55873993307671    7.17442524390432
C         5.70851966059253    4.38149389423126    6.93071779345282
C         6.31781382623538    5.55034351005734    6.47621078980357
H         6.88566165881712    5.53583659704932    5.55580588719343
C         6.19992887562223    6.72910958928471    7.18786953495413
H         6.68070368800978    7.62602158576516    6.82477454696419
C         5.46465786800764    6.75983320274530    8.36231688233114
H         5.37350716908490    7.67954344584110    8.92125870813609
C         4.84539757840596    5.60748838374771    8.81262002344451
H         4.26409349020052    5.62516675444868    9.72322639284013
C         4.96225143553674    4.42461732733329    8.10321202872758
H         4.45675409344099    3.54389396628707    8.46900827188400
C         7.71342405781605    2.79756623706757    5.93659717255877
C         8.41133225387550    3.45977849564343    4.92979950538833
H         7.86706917478732    3.96457078902874    4.14500288610601
C         9.79494809524613    3.48385938014488    4.91474226194899
H        10.31420860499245    4.00810788438268    4.12490069583072
C        10.50776590829203    2.83206929366701    5.90631186831830
H        11.58741092638416    2.84879096206899    5.90022556758787
C         9.82644739218657    2.15928424360944    6.90712024679934
H        10.37564993925656    1.64286846087371    7.68145740805111
C         8.44217756980116    2.14546260408551    6.92811358459592
H         7.94156697702849    1.61689840037286    7.72466228337788
N         5.66512299627745    4.28420514740980    3.22121316241571
N         6.20724370485688    5.22023868501689    2.92279281352888
N         3.93402279354506    1.21739970996422    4.36860836036188
N         3.47679730393407    0.25119179423057    4.71205680627882
N         7.71704352983808   -1.19072518400034    3.46151790774312
N         7.85790828317260    2.75016196594170    1.30534363222749
F         8.94587360000287   -2.67626642826259    1.56625717448109
F        13.20119470301296   -1.16885993008236    2.91132547473745
F         7.54710559911244    5.08882227289519   -0.05701331737974
F        12.19103068732468    5.51471529599355   -0.68441088694122
P         6.35528813945962    1.22793257897307    2.94632812637456
P         3.74663542864227    2.30517178319974    1.66805219656450
P         3.04408781095323    4.24546751513557    4.52472966524261
P         5.88140387882271    2.87992107299824    5.90415373360038
Mo        4.78323047642235    2.75542568583125    3.78164058655928
H         7.02899929503401    3.31915815880468    1.44595588369655
H         7.26333986290201   -1.74947624384946    2.75220542697881

