42
CSD_code = IGITEY | q = 0 | S = 0 | Stoichiometry = C19H22Zr | MND = 16
Zr        1.96770115388204    2.40769159367598    2.48305967469660
C         2.04335069285021    4.49080848283385    4.07090459161789
C         3.08536826203337    4.75578478353912    3.15425364700429
H         4.12043533699545    4.94036736118979    3.40459452953671
C         2.52748086362872    4.88803905525053    1.87308654557413
H         3.06107668732451    5.18909557383816    0.98131409619175
C         1.12401575919891    4.74972311242654    1.98936240143119
H         0.40202794775092    4.94356812996134    1.20518666516929
C         0.82891353574276    4.53229209153586    3.35144375543057
H        -0.15463645361308    4.57110292909386    3.79942091481162
C         2.14091633088775    4.43957396689718    5.57803220071488
H         1.38805743950213    3.74572013057793    5.97547776714458
H         3.12766853752166    4.10101245400405    5.90236932240653
C         1.88534494681819    5.80836926179218    6.14312284633843
H         0.93059672356732    6.24247826602627    5.87796258463271
C         2.74535592383704    6.48260263066800    6.88179920326656
H         3.70601862239465    6.07417529420143    7.15166388132606
H         2.52912276815202    7.46953152623918    7.25394593494523
C         2.24806716554647    2.37098463534461    0.25452464819573
H         1.49645724934913    2.97596261682477   -0.27610950631526
H         2.17716038222217    1.35300361325395   -0.15947095113638
H         3.23189453946692    2.76191732405820   -0.04943944323467
C         3.96782403474714    0.76216916186167    2.09448070060300
H         4.18625419937138    0.30500810212251    1.13853624525470
C         3.33727229136691    0.13416224112843    3.17661763585095
H         2.96326746695910   -0.87965229644421    3.18364499153842
C         3.38267108968092    1.00392836859584    4.28158847486433
H         3.08126141496226    0.76433967529590    5.29424802581473
C         4.09483120926100    2.15473499761606    3.89696570919888
H         4.48275336928447    2.90002168726286    4.57654495846806
C         4.44366632547975    2.02136400138397    2.53480476201982
H         5.10647776306030    2.67575638344124    1.98008985182118
C         0.46316660353690    0.64900378168785    3.53462874452858
H         0.78285414457931   -0.02417088610615    4.31971245799191
C         0.50292409817554    0.38539507677065    2.14652862300959
H         0.88966912956110   -0.51006879245526    1.67514678458697
C        -0.25333506820292    1.38833338647974    1.49753718105369
H        -0.51932979788611    1.39748780596228    0.44928943849509
C        -0.75481645140767    2.25699412171066    2.47530952092610
H        -1.45143155607815    3.06370331148182    2.29626006774439
C        -0.29447878516684    1.81952786424629    3.73218346510030
H        -0.60949589634419    2.20335717472578    4.69547705138135

