73
CSD_code = IGIZUT | q = 0 | S = 0 | Stoichiometry = C24H44O2P2Pd | MND = 4
Pd        1.13254156194029   14.93556358610224    6.82123354745871
C        -0.68548955380986   15.10884462666636    3.16581623930965
C        -1.91418771628271   15.49217643972360    2.63012804925420
H        -2.12545346412070   16.54412523303185    2.50421077095640
C        -2.86436601745319   14.57768316229141    2.22218302737685
H        -3.80804560543083   14.91795630518914    1.82391630506870
C        -2.57780125735748   13.22781779694976    2.30304475272544
H        -3.29379708245826   12.49108666298358    1.97223471546272
C        -1.34767971930565   12.83049583141024    2.78740943771990
H        -1.11569465160921   11.77528690529309    2.80176882924021
C        -0.39155359215724   13.73886993784769    3.24226101705138
C         0.92839763666178   13.18538825241691    3.69040907266806
H         1.73465078703580   13.82248357122150    3.31474087050136
H         1.05735028056698   12.18741741098696    3.26729039405259
P         1.25981758958427   13.08368557678275    5.53010080331293
C         0.09477974293147   11.73012283274968    6.17603812290711
C         0.41148398026955   11.41192949713506    7.64060766737902
H         0.66576765823439   12.32229825394791    8.18757583392572
H         1.22292056623309   10.69900643156399    7.74329373661373
H        -0.46883725340963   10.97459679565385    8.11078219868299
C         0.05274312285042   10.43761656368184    5.36800541449723
H         0.99993762198496    9.90642815017812    5.43027857400019
H        -0.18070949506622   10.61493396355922    4.32244293995518
H        -0.71958857116500    9.78614378044506    5.77603688154436
C        -1.26896168667438   12.43232470653320    6.18174428710494
H        -1.20635935710598   13.30788876111211    6.83895648634180
H        -2.03519926038158   11.76595500368649    6.57609909995030
H        -1.57576287166310   12.75328117696345    5.18938208745212
C         3.07420714557786   12.51065117896834    5.49929297324189
C         3.87351052933421   13.80076052130198    5.27885119323882
H         3.60174499381351   14.53731722520995    6.05313156427628
H         3.68852102343918   14.22038999505598    4.29035767903818
H         4.94156468685722   13.60145832837710    5.35879558002552
C         3.45713133359961   11.98690803828993    6.88367740478675
H         4.54173645262307   11.98535155765550    6.99030835759444
H         3.11111760285488   10.96888215413390    7.03493528169745
H         3.04091922542494   12.63246936145376    7.66050335999930
C         3.43912968568457   11.48572261169184    4.42701182093242
H         4.47606596225195   11.18051931850731    4.56552202302198
H         3.34768774197647   11.89869130059799    3.42502861770181
H         2.81861768471671   10.59633182718497    4.49534400762224
O         1.47446977399069   14.40486424340653    8.64097206580381
O         1.25639352525651   15.74260373143511    8.57582417536536
C         1.99434041430387   17.87944531824117    5.15354721406045
C         3.05228614914714   17.37796136535782    4.16402412826528
H         3.96302347184532   17.96413413848420    4.28175020723724
H         2.72686848435165   17.48361712534124    3.13111078568441
H         3.29849713457634   16.33727229518084    4.36414870394255
C         2.65706307192260   17.95371732558126    6.53279694651386
H         3.54495507021821   18.58430492384658    6.49351128570018
H         2.95880019675203   16.95169757554525    6.86572822374532
H         1.98456127778326   18.36018741324748    7.28276461847638
C         1.53967381232205   19.26570186102354    4.70397603866858
H         0.88665209354231   19.73391215811115    5.43410293033071
H         1.03037914993756   19.22289575622271    3.74283519388632
H         2.41438028274576   19.90557394062327    4.58656029142221
P         0.62422408333298   16.55954913340150    5.31048044822148
C        -0.98130264851572   17.34992421027208    5.94425568434218
C        -0.70074981133276   18.07327757261701    7.26353426028929
H        -0.20149083879426   19.02673963700570    7.11009944758062
H        -0.08975425627417   17.44731696138222    7.91749100971918
H        -1.64235596351901   18.27229806503692    7.77493532638874
C        -1.72729423411065   18.27586845643507    4.98651847394164
H        -2.58169320054632   18.70530621663509    5.50938840461817
H        -2.10827596771480   17.72940632319646    4.13057567569465
H        -1.10781070072149   19.09477360508429    4.63567839463846
C        -1.85981308345594   16.13423823331083    6.27200675184709
H        -1.37664877494229   15.54219201765976    7.06427972167722
H        -2.01655198458401   15.50659708599225    5.39386443415542
H        -2.83273447639825   16.45885506596545    6.63912462744067
C         0.29969386318379   16.18724786802144    3.50542003219033
H         0.00349087230184   17.11942672244986    3.01851047434233
H         1.27616575239910   15.89223301935781    3.11523299811941

