23
CSD_code = IGOBIR | q = 0 | S = 0 | Stoichiometry = C8H5F3FeO5S | MND = 8
Fe        3.35218220325502    7.50533642869719    2.87262449091845
S         3.41922169655846    7.07288979612068    5.77709929345901
F         5.91148911536336    7.42853405033668    5.18754840335567
F         5.50400253193609    8.02733622842905    7.22217207768755
F         5.64946774088550    5.93596869053301    6.72284494610454
O         5.85462283286175    6.70967905574069    1.68974065599433
O         4.92499103950035    9.76804335330507    3.73724490856835
O         3.55960757603569    6.29566144346323    4.52292382725348
O         3.09512141977442    8.44778894325401    5.46832509699569
O         2.68105783142559    6.42313504631586    6.80435839048678
C         1.37725965979836    6.50656693989403    2.27077943829167
H         1.08533632424978    5.48169046687003    2.42154757889383
C         1.97306744267282    7.03617632653559    1.12461960516693
H         2.24571433075574    6.49510656609593    0.23448005528902
C         2.13356031519323    8.43734117997956    1.33101633195105
H         2.44334905876853    9.14553507342008    0.57812365304385
C         1.48805456959215    8.77437215003381    2.56053921730724
H         1.34192942307075    9.76841487730121    2.94298822716353
C         1.05908800725183    7.59140229856706    3.15416720970729
H         0.51424258931732    7.50265519643410    4.07820404856066
C         4.84906120669927    7.00709749238288    2.13219934688623
C         4.29952383710132    8.86429636626816    3.45589887399667
C         5.21914924793390    7.11797203002211    6.29725432291929

