85
CSD_code = IGOBOV | q = 0 | S = 0 | Stoichiometry = C39H44OZr | MND = 8
Zr        1.03306711866172    0.32702611525170    5.64014900211130
O         1.76800004012101   -0.48570284966326    7.18159882276959
C         1.16783128308947   -0.26315861940926    3.17792900150077
C         1.96843754262834   -1.20262636382227    3.86546480755153
C         3.06862146979167   -0.51469163638852    4.41733714920031
C         2.93980388611170    0.85325822840947    4.08126930262657
C         1.77117973430545    1.00175953172088    3.30309310809072
C         2.88894525151901   -1.03042574716038    7.65761212568106
C         3.18172872105600   -2.38202550275633    7.37755319710089
C         4.33648891911383   -2.97889336964647    7.86984868533132
C         5.23023557472415   -2.28260200686084    8.66151062451605
C         4.93397420630036   -0.94951001217896    8.93065038875304
C         3.80551024574517   -0.30335855427617    8.45586652310465
C         0.34648639107750    2.32227768442363    6.43019956270497
C         0.30699678356066    3.05683506118917    5.16098839856456
C         1.34744181829769    3.91770510795105    4.77129086375730
C         1.30863071589444    4.58847210072421    3.56444823963096
C         0.23082002280801    4.43210274799650    2.70665227967764
C        -0.81537348168203    3.59837624543543    3.07646612946992
C        -0.78183919477353    2.92192404762812    4.27929274488644
C        -0.97835153227763   -0.64998527089703    5.47118116185316
C        -1.82220891698520   -0.10557966722652    6.54620356705306
C        -3.00240208461453    0.60135415242149    6.28073182783190
C        -3.75475665248799    1.15757518812922    7.29862056113260
C        -3.36399514431306    1.01272724028338    8.61846998545963
C        -2.20900790431315    0.29979347959954    8.90903301316471
C        -1.45038181538269   -0.24816961975224    7.89509951464505
C         2.26963232715724   -3.21179252963784    6.56973170764977
C         0.90741421472358   -3.27184594972990    6.85452140855887
C         0.07479780861231   -4.11499955569161    6.13603468107841
C         0.58647366480991   -4.90260958148022    5.11864590381457
C         1.94123530165634   -4.85521554321450    4.83134300689604
C         2.77592355184790   -4.02162811315494    5.55224223890372
C         6.48957262737290   -2.90325843036840    9.24601714712864
C         6.41395965327521   -2.83911896712527   10.77783556842330
C         6.66271805178614   -4.36879997410083    8.83834480324627
C         7.71640361007259   -2.12278161901150    8.75360328526927
C         3.56716657426006    1.17483594027914    8.75200288695311
C         4.60110819407299    1.77706235116646    9.71218312926984
C         3.67300651484254    1.93697859400475    7.42019528066498
C         2.18498666233242    1.36972909549748    9.39426068625920
H         0.32510482801246   -0.49978984646498    2.53999651248019
H         1.82617590619892   -2.27559727453744    3.85030793688280
H         3.92083895368076   -0.96687353836773    4.91236307113971
H         3.69003951679458    1.62053133682362    4.23833620225667
H         1.47648585118657    1.89529792416954    2.77108288847520
H         4.49598382064926   -4.01834584917842    7.63353421611271
H         5.62251289747612   -0.39620096372105    9.54467899058197
H         2.18952983655414    4.06685799608613    5.43850656181663
H         2.12099529345286    5.24729938004545    3.29111148671386
H         0.20087453593788    4.96057475173193    1.76584045254589
H        -1.66576303693515    3.48347180289021    2.41894960836611
H        -1.61680501290266    2.29510815937174    4.57419720886088
H        -3.33772044731988    0.70622372056767    5.25615277155651
H        -4.65787899920196    1.70154265555056    7.06040473787395
H        -3.95210726284009    1.44609646163592    9.41315909193046
H        -1.89978083118437    0.17634949983041    9.93745058146561
H        -0.54027979554111   -0.79132885854346    8.13465629139794
H         0.51355924505548   -2.69902457472966    7.68285774849054
H        -0.97642962173947   -4.16932790518248    6.38263353751245
H        -0.06414064102456   -5.55819700125197    4.55905097435206
H         2.34836545386598   -5.47246636371962    4.04337364616332
H         3.83056981660794   -3.98565591252668    5.31952320243376
H         5.53347657082723   -3.37112268288414   11.13161636232826
H         6.35488332113360   -1.81256584571272   11.12840489622486
H         7.29636520573317   -3.29936022977030   11.21758149640112
H         5.83159162529789   -4.97368878574008    9.19161719673239
H         7.57578629123222   -4.76340922874832    9.27867106194152
H         6.74109924946076   -4.46813716608209    7.75867071269324
H         8.62763821332702   -2.56939165901875    9.14602534567266
H         7.68220882159842   -1.08551555754034    9.07466986626179
H         7.76295379040226   -2.14217187060809    7.66676095196998
H         4.34813374972940    2.81909171176545    9.89784698482618
H         5.60304927631866    1.74973942967336    9.29063093705996
H         4.59944529654644    1.25794800197815   10.66736952156141
H         2.93626550365421    1.55408843519715    6.69622565441751
H         4.67469515947491    1.81082058584275    7.00823332844874
H         3.50148541952387    3.00113804137290    7.58174826304919
H         1.38634952968839    0.99423651669499    8.75257913321740
H         2.00800140792570    2.42577500690983    9.59141883317073
H         2.14742779989976    0.83612260056660   10.34215751356784
H        -0.66069772251411    2.22039093528751    6.85635555693991
H         0.98480689351739    2.83878272557277    7.15595278634976
H        -1.47874470562450   -0.53918855748350    4.49658061786200
H        -0.76393275873861   -1.71524143635550    5.64299293763342

