32
CSD_code = IGOBUD | q = 0 | S = 0 | Stoichiometry = C13H14BFeO2P | MND = 8
Fe        4.81173881106593    2.56433786440000    3.88915293924782
P         4.36598890647199    0.43155329855779    4.31244001512456
H         3.11713924468240    0.46216553766397    4.96338760868486
O         6.08395086838159    1.84543661855320    1.39736089857325
O         2.41979245663795    2.74889701913586    2.28218678503463
C         6.32200775244296    2.92441320204864    5.51410962438240
H         7.14362960477323    2.29286544735652    5.80548381895770
C         5.03470657854047    2.92317962109119    6.10412055756342
H         4.71403248538500    2.28270461943601    6.90965243297766
C         4.28906161026262    3.97808323290130    5.53221354488576
H         3.31215324631855    4.30464071193934    5.84974795071540
C         5.12670650536137    4.65726338645743    4.60824868536415
H         4.88835040301341    5.57677083140544    4.09909433662984
C         6.38082107768525    4.00452692407798    4.60187947629504
H         7.25879688925937    4.33298422370962    4.06958223321767
C         3.78076376746338   -0.43370801597532    2.83160781201493
C         2.42674277924353   -0.53321057436402    2.52047431294670
H         1.69275664673130   -0.08656526042888    3.17828459924593
C         2.02105068691540   -1.20103019179646    1.37994073772032
H         0.96903365418949   -1.27421991099688    1.14537171446756
C         2.96014925187504   -1.77514775343838    0.53865007810372
H         2.64019316944515   -2.29428087732226   -0.35272031766228
C         4.30898971477463   -1.69018216990808    0.84590699124865
H         5.04075915667983   -2.14647151497545    0.19547260192127
C         4.71724520005921   -1.02549528670883    1.98651058395225
H         5.76522325325115   -0.96961807498072    2.24581655380099
C         5.60757689523678    2.11019994031570    2.40298332852010
C         3.34800005190395    2.67505105347674    2.94786503988208
B         5.64278060029797   -0.63829848037511    5.27179120891587
H         5.12530941396233   -1.71457914171145    5.29094205438142
H         6.64999941562980   -0.60703056047289    4.62963037994239
H         5.76394990206229   -0.14293571906840    6.34961141294600

