120
CSD_code = IGOBEL | q = 1 | S = 0 | Stoichiometry = C49H67OP2Pd(1+) | MND = 4
Pd       19.28197724020852   11.44773836759532    4.24276732806400
P        18.34364560499921   10.98178533501109    2.12805424214466
P        20.55689264042620   13.32907099649726    3.66224957603479
C        20.67154238476019    9.57327249503796    1.95269667869198
H        21.09473688299030   10.43859966261205    1.43462886438181
H        20.74505226868235    9.76569865845257    3.04335898321980
C        21.47892528313049    8.32881364190470    1.59758970326824
H        21.44437970029766    8.17436862693993    0.51704600182835
H        22.52337137459233    8.47471737702703    1.87967162574044
C        20.91194928275736    7.09958451095780    2.29999789764396
H        21.01911366965354    7.21438656230381    3.38229690119833
H        21.47199374462580    6.21160449175105    2.00598948052948
C        19.43777495714351    6.92745926150740    1.94780561947409
H        19.33867724819595    6.74913245853492    0.87536767545890
H        19.02719604174614    6.05951523021354    2.46710381075130
C        18.64809882556533    8.17722389636554    2.32897614022488
H        18.75761611935999    8.34870392544712    3.40368674410831
H        17.58986748643069    8.02742162177100    2.11070256052392
C        19.18797976275743    9.40364921790581    1.59919771708972
H        19.07270881387472    9.27238242109099    0.51626808731612
C        15.90651963843863   10.20146044388225    0.79711760418477
H        16.02333704584116   10.96505426332080    0.02687235144773
H        16.39795217352901    9.28968056631878    0.44998930003715
C        14.41245130232601    9.94819569217965    0.99452911805920
H        13.97292799291249    9.60637029621662    0.05604730765579
H        14.26942592193266    9.16000523438731    1.73707129495688
C        13.71454460417750   11.22207987690921    1.46332620372748
H        12.65047996887368   11.02982399201046    1.60607244296990
H        13.81320825912234   11.99401639158929    0.69689909246663
C        14.33040251238211   11.71927064523362    2.76817401832940
H        13.84137790943361   12.64046382631398    3.08980826794110
H        14.17355999449917   10.97081996144998    3.54661117733411
C        15.82568883242596   11.96181600421493    2.59163815278057
H        16.27413759851344   12.28447396703880    3.53937163121015
H        15.97989178498628   12.76000063360543    1.86287503937720
C        16.51414045566144   10.67963987679512    2.11268261390109
H        16.34895099116924    9.90697881746617    2.87731302494052
C        18.68295156703169   11.95678661357713    0.58449353399419
H        19.72857220984452   11.76694876075947    0.32863766137034
H        18.06678707424643   11.51818225957270   -0.20374369824291
C        18.43595663245090   13.43132313173337    0.66426703399608
C        17.29197498120871   13.95689992869771    0.07016677110565
H        16.60140209659352   13.28941241581157   -0.42522728824022
C        17.03073966811349   15.31363468007586    0.07408693563904
H        16.13378385675892   15.69270895647384   -0.38991502137425
C        17.94079174490772   16.17984092439377    0.65386047039098
H        17.76369036763489   17.24380503618660    0.64536592885025
C        19.09231474971768   15.67415953324191    1.22494111401268
H        19.81709270510585   16.35783454680746    1.64267190449990
C        19.35064125429467   14.30525036372588    1.25996659869117
C        20.63529705932599   13.84245942453085    1.87729577459814
H        21.35379158008083   14.66431827277094    1.83595863216858
H        21.05251105879308   12.99509077531926    1.32831761023650
C        18.24720278754084   14.60271245717046    4.34693792516378
H        17.95244352235221   14.49221943161439    3.30038973616278
H        17.99118570281328   13.66242250657296    4.86650696974308
C        17.49155321348914   15.77287291221803    4.96858937725066
H        17.71742980745610   16.67893214282634    4.40220570602503
H        16.41626424599829   15.59920638474729    4.89571709149391
C        17.90099974596838   15.97508714924174    6.42477794220794
H        17.60849917940201   15.10616210484559    7.02001191468099
H        17.38659274465917   16.84372148214718    6.83745090747627
C        19.41012508779021   16.16731427980685    6.52991075291325
H        19.69807741922690   17.07837386875779    6.00120857651108
H        19.69909570673244   16.28469744074624    7.57574657606548
C        20.14884379925943   14.97583258664102    5.92365696973110
H        19.88241653192964   14.06782605324179    6.47057663005604
H        21.22395872344696   15.12504844195343    6.02940486707466
C        19.76212064774151   14.80665095411529    4.45466923492181
H        20.05317109717208   15.70283047880615    3.89545970366182
C        22.35320429548906   13.37099966771537    4.13621302812585
H        22.36324276563847   13.17496178251109    5.21726597130246
C        23.07793603876329   12.21317546191694    3.44646469492018
H        23.09417006876853   12.37719350406088    2.36636012013744
H        22.54041480222736   11.28001647000258    3.64620491879816
C        24.51344463164647   12.11017888599056    3.95409657493890
H        25.03015308249779   11.30178030602875    3.43405249053132
H        24.50220959272607   11.87178844031501    5.01894743703539
C        25.25636838769525   13.42539088497989    3.74048694428682
H        26.26724505873576   13.34696585794090    4.14181844676215
H        25.33779785997755   13.63116569289108    2.67079784576922
C        24.51526496599835   14.57162040466363    4.42155844053025
H        25.04570389697805   15.51013938536995    4.25325991209782
H        24.47884620628332   14.39418415169998    5.49872849232374
C        23.09405858308389   14.68115711642104    3.87060161668004
H        23.16227385672607   14.87004594347633    2.79795081569171
H        22.58038942435790   15.52578211330759    4.33235809363107
C        19.93757415841967   11.16963982349241    6.24100620349375
H        19.44168067856223   11.93892767107916    6.83765743183415
C        21.35337842174706   10.99565865840310    6.57993357942324
C        21.93771335517595   11.80643691941263    7.55641994440125
H        21.34697878563472   12.57614479490423    8.03343964296683
C        23.25399358990916   11.62409503408600    7.93494352465018
H        23.68394826091444   12.25575777673610    8.69747045071881
C        24.01704113302160   10.62887835273893    7.34637957615133
H        25.04198877730776   10.47969786670222    7.64859294028702
C        23.45857144898097    9.82950381465013    6.36082480993990
H        24.05229024720070    9.06090556321197    5.88918607883708
C        22.14555619866882   10.01434272284800    5.97613360480409
H        21.73643208647524    9.39018107430413    5.18981754950816
C        19.15719754773432   10.03542542982895    5.88178559593506
H        19.65044660350513    9.06855086481487    5.77288879672513
C        17.79330466690589   10.09411059544239    5.57493201472049
C        16.90874637583881   11.18740459519537    5.93117770046817
H        17.36738967572580   12.11433763592829    6.25787854285761
C        15.56890411313975   11.03355826928430    5.95369493225611
H        15.17349188649113   10.06139025310390    5.68933832902864
C        14.58335989492679   12.02152543467019    6.32306257687399
C        14.89160499922242   13.37023915556638    6.52444908589869
H        15.90406422266350   13.71578773670004    6.39365700843152
C        13.90971574533211   14.27361387351834    6.87578483099947
H        14.16567763672335   15.31205058861249    7.02619134570971
C        12.59821948146408   13.85285356446264    7.03698941977972
H        11.83302341678982   14.56110907534919    7.31491165856619
C        12.27376698236721   12.51983318536259    6.83740021755614
H        11.25391130847880   12.18830274362733    6.96039982509154
C        13.25293283285991   11.61526564572876    6.48001328186408
H        12.99544384896820   10.57683051143858    6.32820889492973
O        17.13402941066051    8.96167474120936    5.20805182912281
H        17.71372380309163    8.18807441135774    5.22189381079642

