69
CSD_code = IGOBAI | q = 0 | S = 0 | Stoichiometry = C37H23F4IrN2O2 | MND = 6
Ir        2.22856902095804   14.24353212560353    1.17045066838394
O         2.49753263207144   14.53172651244326   -0.97330857455185
O         0.81481579096922   15.89541272922757    1.02442626977015
N         3.85186811422321   15.39047440828539    1.35057945880152
N         0.61250976833353   13.08322884934859    1.01103947454424
F         4.33098689936971    9.25290332536018    1.07446709823590
F         7.29956808447834   12.86009935904155    1.10347902264740
F        -0.98953461624236   12.49090426137241    4.93936177891826
F         2.76761262391306   14.76320477730603    6.53500409600662
C         1.96006367478668   15.41371658325946   -1.69570638613400
C         2.36597666692895   15.41125161250476   -3.13168169491776
C         2.46992758393202   16.57848683390058   -3.88183264868652
H         2.27755581838561   17.53698469604532   -3.42243922613738
C         2.84940279943147   16.52019238899282   -5.21041224989753
H         2.93276843482513   17.43178710365776   -5.78429526236231
C         3.12518868356286   15.30040114308962   -5.80610452204603
H         3.41315489800576   15.25948218530617   -6.84629483849933
C         3.04091432793554   14.13573966263951   -5.06141257037105
H         3.26497820049732   13.18294829631588   -5.51838989203410
C         2.67311198696984   14.19231868353758   -3.73073668973109
H         2.61788917751778   13.29122167609533   -3.13717194379300
C         0.99356797012822   16.35098328861833   -1.30821706067579
H         0.61329484791332   17.00430533548924   -2.07571050577815
C         0.47393772451684   16.51709744599209   -0.01786119751682
C        -0.55755011538239   17.57873848514957    0.17056159448947
C        -0.58308485375153   18.26714775353964    1.38096031381645
H         0.13512884788755   18.00497522105382    2.14437849389070
C        -1.51024693363907   19.26733946799999    1.60201063269792
H        -1.51313466647773   19.80135704715993    2.54098308013308
C        -2.43698358064041   19.58064540652685    0.62155640669579
H        -3.16368215694246   20.36139836065572    0.79166713842676
C        -2.43691832637810   18.88186153853384   -0.57449679861330
H        -3.17041295614540   19.11201586268313   -1.33367180950941
C        -1.50335575344387   17.88727169943656   -0.80230337880914
H        -1.52698834750821   17.33546301154007   -1.73054409837945
C         3.80544841753533   16.71606474657186    1.43752420594315
H         2.82146474072676   17.15624279891037    1.52150814517700
C         4.93535418847744   17.51090628093990    1.43003875626835
H         4.84472824100004   18.58276082188742    1.50138538825745
C         6.17397621720518   16.89420192730406    1.32913436019720
H         7.08131515765119   17.47838631006029    1.31660410143531
C         6.23126129183186   15.51560844348647    1.24890783108577
H         7.18547556714382   15.02453487021495    1.17382413285646
C         5.05235150799457   14.76984594107432    1.26287702891047
C         3.63045553529530   12.80929303922679    1.22572891514855
C         3.44523305645295   11.43269931068913    1.18305961944870
H         2.45673289715552   11.00016531758863    1.20431698345989
C         4.53449173856546   10.58524291244895    1.11568037998863
C         5.83525052516245   11.05512431600922    1.08757732367919
H         6.67621123871638   10.38408146937797    1.03324173034283
C         6.02051990174578   12.42157092636627    1.13214103789560
C         4.95306750142360   13.31662203014836    1.20242307780060
C         0.11569699451069   12.67645598358789   -0.15275408422315
H         0.70519557724988   12.90319526909923   -1.03032865846844
C        -1.08147299419193   11.99600316809713   -0.26347762548717
H        -1.44336392600289   11.68933317693739   -1.23153246575082
C        -1.79436852657898   11.72431081440909    0.89523531443684
H        -2.73604876426105   11.19885855352176    0.85273050656537
C        -1.27856635304647   12.13337638477573    2.11048679671931
H        -1.81948435648778   11.92589123838521    3.01694363252079
C        -0.06262287714673   12.81580336809420    2.15411686588235
C         1.82941823119140   13.98062627636826    3.11901202586050
C         0.61124110193987   13.29659524784213    3.35425906704733
C         0.16743636834211   13.13602825945347    4.66680393727944
C         0.87408000029948   13.61982589477077    5.74854496161532
H         0.51014303124663   13.48326755698027    6.75321366002988
C         2.06097358299918   14.28238421840472    5.49205269484798
C         2.54111094322521   14.46597504388948    4.20949984932379
H         3.47626197165578   14.98880094536327    4.07978632488892

