115
CSD_code = IGOCAI | q = 0 | S = 0 | Stoichiometry = C49H62N2OZr | MND = 10
Zr        3.10032897497520    1.58574249280940    2.94158291024380
O         2.02095957248097   -0.00058722796708    3.21394505089599
N         3.64839512386703    1.55680821496066    5.04514926458474
N         3.03889456665211    3.88173745545433    3.37475430639127
C         2.39588050741666    1.46119611061734    0.42314230201393
C         3.04645174741907    2.69805534019562    0.59927604850951
C         4.38232916653212    2.44249122922153    0.95901210317268
C         4.56262756634599    1.03981136506233    0.99628679397453
C         3.33563571976033    0.43959722335304    0.64076371280129
C         4.77437285222214    1.48861602156029    4.42907613692761
C         1.85066162919127    3.41162672182343    3.28318159978827
C         1.73377394826371   -0.87431458148885    4.16753084766203
C         2.76539602088051   -1.61900260178767    4.79582546507066
C         2.47335051431859   -2.46012952959415    5.86234757130023
C         1.18343453835678   -2.63021787575517    6.33752638128293
C         0.16870863816098   -1.97755909516671    5.64999276297931
C         0.39882554557816   -1.13259498487777    4.57522793128487
C         3.32288404748958    1.77623616369821    6.47519651125094
C         3.84480384100053    3.12524436252704    6.99926837378374
C         1.78799793610234    1.80423358105209    6.51766974877112
C         3.81497576564716    0.63337389993235    7.36956235731640
C         6.13304442633339    1.59731674577298    5.12567418519850
C         7.14844716677153    2.21428365871607    4.21104881522800
C         7.78660735214784    3.40501312480400    4.53143808777596
C         8.69620063918298    3.97488680678527    3.65725691980782
C         8.97882242387139    3.36121439419093    2.44956078670905
C         8.35694707917734    2.16579622503600    2.12657213367701
C         7.45162712389341    1.59658385740138    3.00226237459171
C         3.50456354638998    5.28148882803830    3.48350914221620
C         5.01473291362091    5.17557607991411    3.74908410031232
C         3.30181799126359    6.01017099630328    2.14747749802870
C         2.85893315974708    6.08641694379175    4.63203999570209
C         0.57290902283213    4.27464200345586    3.29919101070598
C        -0.02900137737421    4.32257754431140    1.92238282325580
C        -0.32534166603927    3.14716064675640    1.23835561566455
C        -0.88060493898843    3.19170160627004   -0.02744975843957
C        -1.14527349025036    4.40825153488995   -0.63432588550629
C        -0.85495760414289    5.58216956886228    0.03801091523345
C        -0.30308811321220    5.53854372382287    1.30657733199863
C         4.14481995224690   -1.62012154398839    4.28071041899297
C         4.36542492071567   -1.70469436498471    2.90486641341690
C         5.64167301230482   -1.87727892561237    2.39715584080016
C         6.72952256738151   -1.95595724843453    3.25115133405556
C         6.52486412154567   -1.88258146874910    4.61907193098509
C         5.24894866868100   -1.72339582839653    5.12897133244589
C         0.93368901331291   -3.52726692880254    7.54038125057838
C         1.73463888607447   -2.98758073949742    8.73425817712626
C         1.39005806082482   -4.95567784127113    7.21264042317490
C        -0.54232300335478   -3.57948620274973    7.94424005533096
C        -0.77013740908741   -0.47951402786664    3.84121648689886
C        -0.64315434078639   -0.73633628203804    2.33206694369052
C        -0.73666527725465    1.02700941162723    4.12699636588244
C        -2.13907196383588   -1.01630391354427    4.27738745339123
H         1.40558916012644    1.32238888269797    0.01258199768617
H         2.61369961355571    3.66449931369283    0.37740771195285
H         5.17553041971464    3.17497854447292    1.04854425663559
H         5.51654304297705    0.53504841054720    1.06443001833404
H         3.17479115664998   -0.60587758816881    0.41494482289623
H         3.28689205151113   -3.01879991135916    6.30099320073901
H        -0.84611703260903   -2.14031327163381    5.96140027572735
H         7.57576612783149    3.89256146679617    5.47356390236723
H         9.18511448677303    4.90193611973726    3.92017159220221
H         9.68511269510187    3.80888153839554    1.76581901514875
H         8.58211305893242    1.67758458638592    1.18910671827709
H         6.97798152583515    0.65282052089582    2.77200384759444
H        -0.11460905751000    2.19623529930807    1.70850848365893
H        -1.11151213913455    2.27198035839744   -0.54622700511632
H        -1.57743249623360    4.44163244353383   -1.62342991748885
H        -1.06145523818910    6.53687404060223   -0.42395476464002
H        -0.09697126875781    6.46566420186643    1.82561489121094
H         3.50938400171633   -1.73607128851098    2.24672575425129
H         5.78649962893621   -1.98118315252974    1.33063871338965
H         7.72620493806107   -2.09474002666482    2.85814782533170
H         7.36658174509197   -1.96613722726984    5.29313941597846
H         5.11032173561900   -1.68891667950236    6.19928294653326
H         1.56054037827531   -3.60266067768719    9.61489350479387
H         1.43033927390705   -1.96727094904059    8.95894418895700
H         2.80088609417062   -2.98679179009285    8.52572703166109
H         0.84382367265956   -5.33495031745615    6.35163430361372
H         1.20385275908775   -5.61446583959708    8.05859558090463
H         2.45123592157476   -4.98831788959769    6.98216495854036
H        -1.15138392961379   -4.00077846880005    7.14805190912766
H        -0.91460587099413   -2.58830671465802    8.19272656309813
H        -0.65585333472992   -4.21202130432526    8.82265017628657
H        -1.46734085771795   -0.26264651576872    1.80096252280622
H        -0.67628521150079   -1.80632314743652    2.13447033321316
H         0.29652519780596   -0.34212101455154    1.94883311771307
H        -0.91302454607527    1.20580479144257    5.18678480566629
H        -1.51626492251059    1.53472183310667    3.56065450891121
H         0.24508925829734    1.43082194976758    3.85620711634813
H        -2.35172313268058   -0.77709563543426    5.31667487786134
H        -2.20263035596624   -2.09292691635645    4.13778430555407
H        -2.91192013732980   -0.55163351766118    3.66778336868162
H         4.86948003504393    3.06124878255893    7.35641257367121
H         3.22829138390621    3.45742138458442    7.83280532696778
H         3.79342709032190    3.86899791208091    6.20888902965724
H         1.42290457414736    2.61507307090948    5.88595429953458
H         1.43200599171390    1.95461469936151    7.53541593065345
H         1.39656981743257    0.85974709920398    6.14443918897950
H         3.35872444217360   -0.30153675991909    7.05387079310129
H         3.52701829286977    0.83061350956899    8.40085578871156
H         4.89601510157379    0.53465045336563    7.32819668239093
H         6.09369936011293    2.15559587848256    6.06339991235327
H         6.43533202956491    0.56773685628081    5.34648835800751
H         5.19770653966628    4.75827988873249    4.73567332393411
H         5.48528144261815    6.15492411299876    3.69016481030808
H         5.47880818687452    4.51686615200213    3.01741954547841
H         3.89449108125420    5.53406976344602    1.36976903258824
H         3.62217948206856    7.04641181751919    2.24064836077955
H         2.25926733257683    5.99123596671585    1.84161521838618
H         2.05893331147833    6.73140980763795    4.27508842824215
H         3.60683724675544    6.72468264523537    5.09907677438978
H         2.45541092002316    5.42252213192151    5.39408661155546
H        -0.14226550657419    3.79854391298466    3.97976712199109
H         0.74503234507423    5.29333378637701    3.64810731296517

