79
CSD_code = IGOCAJ | q = 0 | S = 0 | Stoichiometry = C41H27ClF6IrN2P | MND = 6
Ir        5.80442000738147   -0.67867196929190   20.82734848452163
Cl        6.33085446193614   -1.83553155133654   22.90122650893299
P         6.82362784150389    1.22840451414132   21.90542634768081
N         7.47681553956514   -1.51289699485386   20.04761099345778
N         4.01714256793336    0.00795872178382   21.47298667127789
C         5.01126325882703   -2.37024155864245   20.05884613466293
C         3.67584093871327   -2.75377672808493   20.04868221518968
H         2.89370407779048   -2.09362209363716   20.39080855784694
C         3.31489491982699   -4.00727431889358   19.59470746454401
C         4.24480567297894   -4.92209027582506   19.13609481622259
H         3.95175720295210   -5.89813888477464   18.78711041757095
C         5.57008867285963   -4.54073623877850   19.14171754680549
C         5.98387944726638   -3.28474831753011   19.58915058158644
C         7.35411374762071   -2.79082693381341   19.60998800366933
C         8.47988303119498   -3.51382795628044   19.21128248121904
H         8.38158972549811   -4.53545887649667   18.89081405845352
C         9.72742460389715   -2.92254183073007   19.23190337221336
H        10.60107512693572   -3.47974024826838   18.93154184232333
C         9.83047234498200   -1.60043415762864   19.63784651987446
H        10.77571008269570   -1.08324448819518   19.65838134803431
C         8.68226214663517   -0.94594398103930   20.03553990338722
H         8.74389225922459    0.08249645271495   20.36413183733166
C         5.26684432340478    0.41450582764168   19.21966537694431
C         5.98533731423847    0.60962551919198   18.04505244799942
H         6.90971225369520    0.08320681376926   17.86163149768981
C         5.52173858903618    1.48122423159369   17.07911590997667
C         4.34998520962223    2.19963678866719   17.23702075011206
H         4.00326844487626    2.88641434049560   16.48318192181154
C         3.63231607002108    2.00211638366918   18.39890206863767
C         4.05113902298885    1.12087092119260   19.39585789713803
C         3.34709610230976    0.84078633547443   20.64229433117794
C         2.09249126467083    1.33341933634178   20.99874317837831
H         1.55403546005646    1.98685031219785   20.33527483589125
C         1.53268670675736    0.97493648947893   22.21024605157847
H         0.56175203634498    1.35169625721885   22.49286617608751
C         2.23446336718666    0.12105422959787   23.04667650191130
H         1.83493017284030   -0.18858220623240   23.99831796346840
C         3.46945730886982   -0.33915646366214   22.63389141399888
H         4.04969420940235   -1.01280273318101   23.24990223153226
C         7.39227061097014    2.57814911551068   20.72265642653128
H         7.93002398889197    2.06644739592833   19.92043735392479
H         6.49205576186204    3.01050405275437   20.28462166199067
C         8.25679775435883    3.62117227700708   21.33431133205476
C         9.62573522554881    3.40111372359614   21.46932506821240
C        10.48049741100077    4.31101196973473   22.05683537248288
H        11.53435508410981    4.10603542657279   22.14517644161175
C         9.93077228740285    5.48737209806452   22.53289799511221
C         8.57908497374486    5.75910473596505   22.41962896615053
H         8.18720661014789    6.68963161816923   22.79717218831577
C         7.75517825257683    4.82407943868701   21.82058238417752
H         6.69950244033749    5.02790800592244   21.73205093124744
C         5.58723831375113    2.08022782697108   22.93912953777835
C         4.71873393134812    3.05156393530314   22.45271257259248
H         4.80364322646031    3.40834809863906   21.43601311062990
C         3.72048674676329    3.56464387448388   23.26203380449138
H         3.05802466973643    4.32515486100997   22.87489116004265
C         3.56391724024792    3.10068844828270   24.55667454249296
H         2.78520243883766    3.50572890170378   25.18541713707037
C         4.40069063522659    2.10595805203974   25.03670990304865
H         4.27054016553979    1.72579837100436   26.03894502841922
C         5.39909788076828    1.59222210601287   24.23208716700577
H         6.03765247847248    0.79865095800005   24.59441714406300
C         8.20675917095637    1.14631530715325   23.09682760369900
C         9.03030260025564    0.02946092616161   23.15631982976746
H         8.82168226039044   -0.82913801499941   22.53847881287398
C        10.09432350266147   -0.00670115936035   24.04041102248838
H        10.72512162372057   -0.88207664605709   24.08053318749468
C        10.34541391163001    1.06927514125113   24.87332445256763
H        11.17839252475217    1.04245060019524   25.56008061150088
C         9.51390738423934    2.17700571865105   24.83613300938697
H         9.69346423700614    3.01441161868073   25.49455850349401
C         8.44802045097208    2.21633111102980   23.95810432245106
H         7.79505983141056    3.07816853542604   23.95061097256864
F         2.01204365546278   -4.35383693485472   19.59033298890750
F         6.45873741875638   -5.44924083067613   18.68073900742033
F         6.23792173840678    1.65630442804923   15.95061365191215
F         2.50163260946924    2.73188426136429   18.54050719145434
F        10.14360405315692    2.24657438950595   20.99638397522334
F        10.73653936410564    6.38988158911743   23.12002696620179

