64
CSD_code = IGOGAO | q = 0 | S = 0 | Stoichiometry = C21H34Cl4N2O2Zr | MND = 6
N         7.70002961342070    6.24825150051881   -1.57349483147488
N         8.85046172984041    3.91460126986932    3.02219551475052
C         9.01311668697770    4.10714600549826    4.14359433808093
C         7.35624769350866    5.75459061076374   -2.92039271134990
H         7.36392729081967    6.60303401513054   -3.61083204223540
H         6.36122905483670    5.31019632370163   -2.89639463576461
C         6.72351132540130    7.24822789221082   -1.05628240404407
H         7.00911327951922    7.46071707400774   -0.01924428530248
H         6.81919383069356    8.15501389431092   -1.65890310876770
C         9.07641805849476    6.78597161747041   -1.57801722683337
H         9.33247465870939    7.07980029166261   -0.55799986157853
H         9.10911083789778    7.64752730756811   -2.25034303738430
C        10.03584387671177    5.70002227013296   -2.06520015741604
H        11.04896288728559    6.09624845301078   -2.13760072238961
H        10.01572948450969    4.86019601539161   -1.35844688168963
C         0.83179683154337    6.54738000726868   -3.22628996584665
H         0.88041647341469    5.46915280288318   -3.35765392408646
H         0.34371428249471    6.77222979680680   -2.28129151480651
H         0.21667402700242    6.95430842047404   -4.02615422600014
C         2.84366794623149    6.83456963423463   -4.65240891841941
H         2.99036080882659    5.76028769707866   -4.74124427869364
H         2.18309298984551    7.15960478267993   -5.45298358451411
H         3.80458004756598    7.32332127389391   -4.78704379035968
C         2.07146717600354    8.69621662626099   -3.15245521447813
H         3.02636202645155    9.20391769030186   -3.25451644859914
H         1.40077662435067    9.07486485766019   -3.92056674236343
H         1.65675096715587    8.94472123857224   -2.17829899706701
O         9.68513531774124    5.26273604990838   -3.35965102553935
C         8.38979370106895    4.71142703575418   -3.35493099249461
H         8.33974505672519    3.85428736467163   -2.67054963355784
H         8.18998527957923    4.38505262813697   -4.37650323492072
C         9.19745443315101    4.35459151146640    5.53255159249183
H         7.70403480883570    5.40395489679941   -0.92870371778138
H         8.34177867811671    4.94308029011692    5.87460964561387
H         9.23507198996724    3.41094647377397    6.07603333632952
H        10.11645396503345    4.91801245395869    5.69183208203001
Zr        6.92596425148398    4.64615340656126    1.96499837377531
Cl        7.84066587564149    3.61401181292892   -0.04024735309092
Cl        8.56735015972154    6.40905122169036    1.60231090365550
Cl        6.28072825314232    2.56206504558131    2.88055955126549
Cl        6.41552138247034    5.73906605856488    4.02420356194913
O         5.72597015305551    5.50390326063464    0.84567172278774
C         3.58576521370133    5.27143539988458   -0.22949394856743
C         4.88593986268543    5.81552681396296   -0.13332415047632
C         5.31174075183435    6.73510590090862   -1.11103497587743
C         4.44767869617586    7.14992154081462   -2.11030200356693
H         4.80831057707763    7.86868393762344   -2.83124194814027
C         4.05851429319129    2.94198340861068    0.41961801353944
H         5.11950182859559    3.21144033961672    0.45830433321746
H         3.88321354152313    2.15391090779870    1.14922971418529
H         3.84236815271626    2.55259801153332   -0.57464724807537
C         2.75879796335136    5.72579186702295   -1.24558989723848
H         1.76466246828974    5.32397692936327   -1.30519497533762
C         3.14797558170338    6.67231631134237   -2.18721508372118
C         3.29727295384590    4.58509326006618    2.18583442675143
H         2.69983897535460    5.47694026442387    2.37160641613332
H         2.94002285275738    3.78750221848952    2.83525530510878
H         4.33602561985289    4.79831960027360    2.46182450449120
C         3.15889889214149    4.15414623927725    0.71645384904843
C         2.22648157308799    7.17504688735650   -3.28810243140229
C         1.70262194331121    3.71987362157516    0.50907995963121
H         1.01689130914185    4.54326452231403    0.69501805815356
H         1.53969416189916    3.33524648095689   -0.49477066260747
H         1.46889897235299    2.92221665666765    1.21037759103977

