85
CSD_code = IGOHOC | q = 0 | S = 0 | Stoichiometry = C30H46F6P2Pt | MND = 4
Pt        9.99533307329275    4.41181216489990    9.18705521184410
P         8.60439572471604    2.52380838323201    8.86452851337489
P        11.96852800573100    3.09941312504462    8.96044079656374
F        13.69377216887850   10.26702069596134    8.55861752465376
F        13.43669534673941   10.32434762818444   10.69265869424930
F        11.90528633366436   11.10811868815466    9.40260626873419
F         5.05516001884922    9.33292443105032    9.79682497102224
F         5.30097344217175    8.80482622350263   11.86799072498916
F         4.03960647282421    7.61612685295599   10.59744879020345
C        10.90785388159203    6.22115037440430    9.36499068354648
C        11.20408605356020    6.94975156168820    8.20864238108889
C        11.81223667672494    8.18942482524725    8.25872533304400
C        12.13178874896473    8.74892787136173    9.48864435068683
C        11.80319771431459    8.07751332447590   10.65759729760428
C        11.19824799110378    6.83648915346323   10.58681489865547
C        12.78581453293906   10.09323303279941    9.53955372422685
C         8.47168647600119    5.68119817267006    9.59208401468863
C         7.85484085587708    6.48853662072362    8.63326290148324
C         6.81729018616161    7.34262867019022    8.95821456858729
C         6.37329050124614    7.41522009619839   10.27128222912858
C         6.98222595116507    6.64477878287931   11.25280588709136
C         8.02065700796048    5.79938339991076   10.91008066785729
C         5.21477087601128    8.29150631718669   10.62869814333984
C         7.35458361956154    2.66958932426878    7.46725242476598
C         8.14864913736130    3.39544739451017    6.37211963730486
C         6.87598515849192    1.31806253598512    6.94281851720647
C         6.16100478111546    3.52983781703279    7.87566828671037
C         7.94358500075011    1.70722135067185   10.42307610841004
C         7.60456891634034    0.23088316682902   10.23743094021576
C         6.75014268415523    2.46342895519425   11.00152884676764
C         9.13935172722540    1.84213141033313   11.37303663196924
C        12.68339466901188    2.83914303734418    7.23830750064308
C        12.56004159298057    4.17765953431392    6.51360663642933
C        14.11672805541489    2.32497229661530    7.17613723720221
C        11.76177608587701    1.81490485925195    6.57169455094684
C        13.28052685671046    3.43748529314112   10.26330659807946
C        12.44843062436353    3.56616792804674   11.54570927259970
C        14.28726372667525    2.30352956136046   10.45718670789339
C        14.00158383051888    4.75078068857978    9.97269143281970
H         9.23447917714709    1.36998524069107    8.38039486326598
H        11.83438689324834    1.73820390762378    9.27389733021175
H        10.95201520098473    6.55121484335525    7.23398257064344
H        12.04411227274627    8.72490832460406    7.34971697353937
H        12.02425566805548    8.52417212310946   11.61549494373878
H        10.94337654149642    6.35091784257139   11.52001685595162
H         8.18912590589280    6.46427318333064    7.60383900984279
H         6.35431075807097    7.95563559373918    8.19938179891957
H         6.64474366038710    6.71464884065881   12.27646935711704
H         8.49168982034679    5.22561940398512   11.70067027185795
H         8.71178955004235    4.23167994323908    6.80275936866183
H         7.47902334917155    3.79059001491012    5.61041749752414
H         8.84628011170917    2.71628686425311    5.88450611360313
H         7.71366207724407    0.65172397246929    6.74068885591763
H         6.32596227018709    1.46348623898512    6.01386418467769
H         6.20854102203303    0.83202601476029    7.64952485509000
H         5.49429552739909    2.99067789781787    8.54222563637812
H         5.58947904542740    3.81139394903354    6.99229240627934
H         6.48899913241957    4.44076402789197    8.37181992681255
H         6.73621232905490    0.09739161887387    9.59830498258067
H         7.37740299606968   -0.21429881425027   11.20549909486343
H         8.44134781997430   -0.31348940227926    9.80206680692324
H         6.89352051837286    3.53930278719977   10.91834161418171
H         6.62768738678143    2.21397539377197   12.05473232237234
H         5.82943107974014    2.19542423886415   10.49014260890531
H         9.99496777231147    1.28538246872893   10.98817177126316
H         8.89725282615113    1.45704814450535   12.36231769078133
H         9.42208651717848    2.89418529285929   11.46730253594070
H        11.51473544623322    4.48913874672505    6.50583003752425
H        12.90485065776432    4.09495089640312    5.48389133357046
H        13.14457136379424    4.94763424608116    7.01397425933235
H        14.82107893494470    3.05594672821363    7.56335248621789
H        14.37956999514046    2.13134002684194    6.13614417403316
H        14.22403906324572    1.39339594340882    7.72716115363025
H        11.89728945146410    0.82621288295142    7.00863360549462
H        11.97509537356551    1.75028523784481    5.50576591769856
H        10.72054708949522    2.11003615924395    6.69687826003509
H        11.58805471064789    4.21823551460658   11.37640246839132
H        13.04755467362540    3.98981941081421   12.34947712697655
H        12.08802131441904    2.58898222115224   11.86470186355076
H        13.79161673398786    1.33347729547411   10.47023155684946
H        14.78863991328107    2.43591087981138   11.41531453163520
H        15.05090384759671    2.29597908991305    9.68674755306114
H        14.61821866208570    4.67397143786832    9.07970848710799
H        14.65088951656735    5.01223310665071   10.80686175984551
H        13.28743151544936    5.55893467102091    9.83104127058115

