76
CSD_code = IGOLUL | q = 0 | S = 0 | Stoichiometry = C23H48ClNP2Ru | MND = 5
Ru        4.22072329029804    7.13361939001754   11.28769354290684
Cl        2.06512272470798    6.12340273067280   10.94684918922886
P         4.19895968793625    6.84051445624473   13.55876962640963
P         4.54680691610608    7.95527143242833    9.18234173534459
N         6.55971048219829    5.71108563061799   11.85338431724830
C         6.02515773530189    6.88092810630666   13.93000922489682
H         6.27811933504603    7.75135211683789   14.53490185173193
H         6.34300657758348    5.98873317397269   14.47063194237837
C         6.74880287936798    6.96050924149015   12.57321076143163
H         7.82734181037693    7.11997856746545   12.72802886484958
C         6.09537391431132    8.02654611015421   11.68463124957631
H         6.07016973036144    8.96905150519135   12.24774653530522
C         6.94941686281064    8.27832632289822   10.43095229128135
H         7.81364502871991    8.91210807686944   10.66896817275281
H         7.33406448096539    7.32883118495690   10.05253996696051
C         6.10507899080173    8.95118413128223    9.34885689113633
H         6.64349697344510    9.05144368850259    8.40401148753750
H         5.83375550380951    9.95144119424823    9.69501921162409
C         7.56189442486256    4.68186315124608   11.93903403718588
H         7.24300841889455    3.80557163636635   11.37593927950173
H         7.73118852884706    4.38987185914118   12.97965466124907
H         8.51076061891957    5.04036205212955   11.52879054218640
C         5.42339273291645    5.64345644090671   11.19281697449238
H         5.27719575454376    4.69265583805942   10.65632708617823
C         3.64066545940162    5.21783070762683   14.38575687491584
C         2.11542431956577    5.21797839245649   14.48992709701293
H         1.76015579865260    4.20352123920348   14.66954622847324
H         1.67842605269053    5.56319229601458   13.55388484797351
H         1.76549761541804    5.83979292931287   15.30921636566253
C         4.02727472960258    4.10345938513602   13.41059552816288
H         3.67087932022347    3.14422025301496   13.78491109038607
H         5.10682489489313    4.03627003982690   13.28922755374713
H         3.56447629805141    4.28544221471549   12.44082493475709
C         4.26493136247750    4.90516050965194   15.74852723963208
H         3.74951870332431    4.04498012627118   16.17497244813586
H         4.17907888982601    5.72733168677437   16.44940197719296
H         5.31610351052085    4.63901912266644   15.65981219235242
C         3.44336252976848    8.29408591230081   14.53421454317629
C         3.54944936802033    8.21012886807053   16.05425991836885
H         3.22049950243050    9.15501912514961   16.48814685611434
H         4.57811441415210    8.03806688049685   16.36795559619929
H         2.91655852019128    7.42625249504877   16.46046158601581
C         1.97850489420096    8.41909030433097   14.09085344781082
H         1.64378921657727    9.45284665278916   14.17228915774614
H         1.31487244688166    7.81017371609264   14.69607111737960
H         1.86291860894688    8.10478672185704   13.04965611757501
C         4.16587355424064    9.56263385184889   14.07188148974761
H         3.68466865406889   10.43875894722631   14.50697363686162
H         4.11244099530045    9.65057011203828   12.98815683040398
H         5.20971600342203    9.57473208234444   14.37852592044987
C         4.79691321747368    6.93994979080001    7.60944530002315
C         6.14186498521799    6.22686909805676    7.77534045480159
H         6.25320386601579    5.46017554168108    7.00916548097947
H         6.18569597423250    5.74537556353663    8.75176993697189
H         6.97732330711017    6.91748694691025    7.68207367176444
C         3.69294741332521    5.88100231557496    7.58340960346023
H         3.95581504661927    5.07257053258432    6.90216165890330
H         2.74371895288701    6.29705617191869    7.26065313942681
H         3.55352210417169    5.46431749091674    8.58209255080948
C         4.81268938128552    7.75488129884024    6.32000868341424
H         5.12008764180039    7.11595815126706    5.49204365687437
H         5.51537745275235    8.58417933975445    6.38469304761553
H         3.82659620332974    8.14722132247092    6.08687898995143
C         3.22105750525429    9.28248382627563    8.93000320293386
C         1.92399246899227    8.63252169949540    8.44958949009760
H         1.09201980893853    9.32533319026433    8.57923543873786
H         1.71142686880681    7.73445138024973    9.03122604269320
H         1.97511966734022    8.37034653854934    7.39577688469461
C         3.57834699657885   10.47019066759486    8.03818797176618
H         2.78366111012192   11.21381730280678    8.10490477147222
H         3.67135084797229   10.17513210920286    6.99757682761153
H         4.50693854172052   10.94695810943877    8.34345055362877
C         3.00471895413687    9.76113133262627   10.37444706479141
H         2.13077702922718   10.40956687402338   10.44430165604081
H         3.86976432676222   10.31729143146796   10.74022683518564
H         2.82225126193494    8.88237936343281   11.02797704570549

