32
CSD_code = IGOPAW | q = 0 | S = 0 | Stoichiometry = C9H12N4O6Zn | MND = 5
C         5.40574630148979    3.95364212851663    4.15288561909647
C         5.66751116523890    1.50157971959001    4.03072696881084
C         4.27390525032215    1.46660450184394    3.66523552247744
H         3.80030013662675    0.51947838118102    3.47259235220396
C         3.57517501128002    2.62244415228333    3.56873106710356
C         2.10167046694832    2.65637998730599    3.18603802261261
C         4.36659943871260    5.86703787135052    0.90748102574906
H         5.25593255480123    5.98605420719285    1.49316902718571
C         4.22395820278289    5.78211649797056   -0.44031883289778
H         4.94019935018239    5.81555661223067   -1.23389319392876
C         2.25480096480513    5.61345264656401    0.52473399962332
C         0.79737691807040    5.45807457245887    0.70266133485354
H         0.29836604259392    5.34254456052288   -0.25519189971226
H         0.39366263362825    6.32351153331412    1.22459957821535
H         0.60676778476111    4.58175301490452    1.32255703061223
N         4.11516131557568    3.84806913275233    3.79775545046871
N         6.13359371597788    2.80401178983030    4.25685025149662
H         7.10507537662960    2.89923267964462    4.52980967921065
N         3.13582955399447    5.76477559343812    1.49544956834739
N         2.88284267319501    5.62585989367319   -0.66496499102767
H         2.44500896118542    5.51184496844133   -1.56528583247519
O         5.93195276215492    5.05742110661460    4.37275641036368
O         6.42743753617720    0.56391621854116    4.14975661969430
O         1.53147763870726    1.64202873110875    2.84158145559611
O         1.55086227767521    3.82087629077819    3.25122013462934
Zn        2.83656615162312    5.23710026565283    3.39774875973949
O         1.07837246573185    6.38310200103150    4.02669781136785
H         1.13860814874770    6.60798487896296    4.96060201925448
H         0.46318096846378    5.64180380675291    3.95793830244790
O         3.93159812967283    6.67380156274324    4.45881776005937
H         4.79915623617734    6.15038347580509    4.52237514315957
H         4.15930386607500    7.50845721699270    4.04258383565895

