34
CSD_code = IGOROL | q = 0 | S = 0 | Stoichiometry = C13H15Cl2NOPtS | MND = 4
Pt        4.80362723272441    8.58411801144620    5.41512880801973
Cl        5.21819356807118    6.85302015210086    4.03286806333414
Cl        6.44593785482191    9.83232354354963    4.49109766251334
S         3.21078025387062    7.29967276358167    6.47717662500720
O         2.10933169204022    8.03110345807974    7.09922213851081
N         4.39569926347882   10.12270744492151    6.63188596529659
C         3.20637752241565   10.71514556903161    6.57189267501215
C         2.86865722801335   11.77337860569561    7.39560461528938
C         3.79954448949903   12.23288858601973    8.31430438305367
C         5.03919525626418   11.61380041991165    8.36582105495064
C         5.29920030063936   10.56341992872794    7.50517611382335
C         4.08527976147057    6.44685090017528    7.79609911170222
C         5.43706804700262    6.19741614702307    7.64241265175906
C         6.12704314495273    5.55704520264955    8.65668227032235
C         5.47716524555127    5.17430142113259    9.82508517132843
C         4.11875952175308    5.44931379638805    9.96296946402037
C         3.42090058196640    6.08530392494272    8.95400909930140
C         6.21887451377527    4.49362529182818   10.93303162799622
C         2.49909628669000    5.84225304740178    5.64827797533251
H         2.50283590065639   10.32701212368279    5.84753808486528
H         1.89399773324767   12.22650172029531    7.31436734653056
H         3.56640022528912   13.05691381655057    8.97110955675207
H         5.79741998891373   11.94066092477910    9.05910401256200
H         6.25917887066509   10.06286402941606    7.49903775864732
H         5.94104432286649    6.49671746269531    6.72865244387958
H         7.18132508688090    5.35557694305598    8.53998073997094
H         3.60766042409769    5.16173457819630   10.87019586224418
H         2.37174928335568    6.32011270204455    9.05295722613350
H         7.22231759986269    4.21860578844355   10.62025597596543
H         6.29511300664407    5.15649161580808   11.79463734342971
H         5.69085986676355    3.59670012639401   11.25140372000855
H         1.99234900648030    5.23885142181150    6.39214333770504
H         1.80040001565667    6.19793011610652    4.89928295274699
H         3.31921690361915    5.31113841611632    5.17918816199486

