34
CSD_code = IGOVIK | q = 0 | S = 0 | Stoichiometry = C12H15N4PPdS | MND = 4
Pd        7.00458347399379    4.07408446714737    1.16335423053426
S         2.98460122840628    3.34950141067083   -0.65519319768651
P         8.59732542194504    2.63142039715433    0.49860990643399
N         5.44722872876620    5.28898489078507    1.81932532083364
N         8.28801907595614    5.11873980707013    2.38359387587803
N         9.40252008725760    5.46012992744599    2.27011377841840
N        10.47365976281708    5.84484102180841    2.27142534530159
C         5.51039112026687    6.25663198674282    2.72567507366121
H         6.48789062918184    6.45209849265824    3.15417197160316
C         4.39844018754810    6.98589089667309    3.11210669684953
H         4.49389508751175    7.76452009657972    3.85135794047432
C         3.16983632527159    6.69595958291513    2.52981544823722
H         2.28588244030880    7.24970196184526    2.80897870173457
C         3.09590824816729    5.68879338393125    1.59091499914071
H         2.16423264292354    5.42627393102778    1.11417335890687
C         4.25824025979067    4.99043852492951    1.25077678480495
C         4.33353396731245    3.92562723503833    0.29616152185575
C         5.51982419202169    3.26801835457548    0.02668469081672
C         5.31038846616893    2.29184981742410   -0.98108954556331
H         6.07607553015205    1.64739595190290   -1.38363698362138
C         4.02412596626086    2.22717556323811   -1.42717475812632
H         3.61820882567935    1.57490382050908   -2.17703561589114
C        10.25654730464331    2.66755136713388    1.27244212979023
H        10.15478950529876    2.56085516507197    2.35194158808152
H        10.75205488281475    3.61553711358696    1.06755316650264
H        10.86212910485137    1.85096898563602    0.88005470242678
C         9.04604610701897    2.68015050541564   -1.27928754930176
H         9.53812989278426    3.63143726816465   -1.48040821052909
H         8.15224121865207    2.61936022299509   -1.89613332235558
H         9.72403671812347    1.86320949730544   -1.52319497496515
C         8.15046258527857    0.87531966410291    0.79502185284963
H         8.06500422703758    0.72560730818038    1.87135401017831
H         8.91886694979567    0.21358424273679    0.39721878170659
H         7.18997983599291    0.64363713759762    0.34182828101926

