110
CSD_code = IGOVAB | q = 0 | S = 0 | Stoichiometry = C52H50BrN5OPd | MND = 4
Pd        2.59262095055035    4.43317311717511    4.65102005757684
Br        4.63600476297305    4.88345036652937    6.04322436791052
O        -2.39998398744320    9.05051879703600    3.50737095030499
N         0.91757944594581    3.50321505172567    2.39842135684878
N        -0.42724189790655    4.67502239561186    5.34141880222031
H        -0.85397543528578    5.40874291501246    5.88998782214107
N        -1.54385726754604    6.96612512944927    3.98404478146143
N         3.20290712818919    1.51936567530753    5.34818154237273
N         2.61080614510067    7.50697969179728    4.52072866068097
C         0.96687237499811    4.16886135117732    3.46546940524232
C         1.96327851699427    2.79185123217537    1.82604077685027
C         1.64221612652318    1.49805410069966    1.37494298525981
C         2.63007919541765    0.69737545874710    0.82985297037514
H         2.37780941872396   -0.30000855442368    0.49819593178676
C         3.92575293069508    1.16547560154186    0.69250656456867
H         4.69398996294435    0.53020093324312    0.27771831052573
C         4.21590468146235    2.46699214112004    1.04782878677637
H         5.21169892492350    2.85605802412213    0.88813115884663
C         3.25541529655512    3.30527480804729    1.60394494133837
C         0.23680237654301    0.99077103169106    1.48499909431669
H         0.07233977486260    0.17755243020819    0.78204000670454
H        -0.46751317371663    1.79372978301167    1.27775010460076
H         0.03692270592263    0.61854316227470    2.48855272533129
C         3.63950011741330    4.74886983798396    1.81833224065238
H         2.75940303045355    5.39726569421715    1.86750889698691
H         4.25389934389147    5.08001904593556    0.97970935320573
H         4.25612957388931    4.86804400497979    2.72675047800222
C        -0.16052899511495    4.93381758413398    4.01396674837615
C         0.02490105430656    3.53825961779234    6.04194669446575
C        -0.41612855169509    2.26208525885422    5.66373919603650
C         0.01766895219273    1.16443342624026    6.39323680239423
H        -0.31850284658398    0.17628844334538    6.11185394677555
C         0.83699503571495    1.31767891931482    7.49764211220356
H         1.16368082283769    0.45072295524658    8.05259467217628
C         1.20932617487230    2.58547867640272    7.90810519972279
H         1.81010415425056    2.70996088428161    8.79757113427122
C         0.81439788262884    3.70823575846636    7.19344103774211
C        -1.41107198733160    2.10386226025351    4.55465774329880
H        -1.68087490558396    1.05783399959279    4.43026682663074
H        -1.02484244664333    2.48351159967618    3.61193983529489
H        -2.31298935783286    2.66605912806434    4.79696198686782
C         1.18068586672164    5.08912359178854    7.66204703765700
H         1.67016592615545    5.65477439676307    6.85816044393198
H         1.86317362686720    5.03608744323164    8.50681415042941
H         0.28774150148394    5.63878337491085    7.96737785566827
C        -0.50397414746792    6.48386050164128    2.01359702026676
C        -1.09808487070071    7.75836430496734    1.91460828273956
C        -1.04344766477380    8.51243616962622    0.75511850545389
H        -1.51555214836422    9.48241148602450    0.72359105142997
C        -0.37957662686781    7.98545099819025   -0.33709973023105
H        -0.31623396234229    8.54737706367763   -1.25684796553370
C         0.18941544957532    6.71787236003857   -0.26243649504735
H         0.68264272906121    6.30856747474105   -1.13236798938346
C         0.12473378069740    5.95535898660220    0.88945244282776
H         0.53281767015704    4.95922321549718    0.89720881694942
C        -1.76440390102356    8.06561171762881    3.17855083840414
C        -0.74255352085013    5.98662140148068    3.35169467547251
C        -2.19434064789497    6.85750198022460    5.23898745079214
C        -3.31915677992126    6.03407939900669    5.35347398085430
C        -3.94891395696385    5.94481130983190    6.58567043172915
H        -4.81499945689916    5.30844901095439    6.69291794860935
C        -3.49289603398270    6.67731687508518    7.66765706352280
H        -3.99642987133158    6.60115302947642    8.61962934791314
C        -2.40558076029735    7.52085978581544    7.52914940423787
H        -2.06693787571102    8.10850826077354    8.36998368108408
C        -1.74319347977680    7.62921545022015    6.31418520884637
C        -3.83174714091752    5.29840949683836    4.15478113793098
H        -4.67107268032707    4.66188534494604    4.42277936200450
H        -3.05115622193143    4.68780838517194    3.70254641705030
H        -4.16375342032595    6.01369829047463    3.40170667824910
C        -0.57027587215762    8.54290628489504    6.14078842084087
H         0.25354258220914    8.02565894955419    5.64937799168651
H        -0.23181296477342    8.92986450855014    7.09872027351969
H        -0.85554454666735    9.38320435040479    5.50806461113865
C         2.87701832490721    2.55072380659446    4.91481563509295
C         3.55420356056060    0.32840886254623    5.89557018973127
C         4.35397864474117    0.32190271586173    7.04627002760094
C         4.68257489415651   -0.90944254168291    7.59319846338284
H         5.29649615948063   -0.94131642209725    8.48085578391764
C         4.23761895616050   -2.08674443978711    7.01824995432683
H         4.50572468680564   -3.03479712766056    7.45972460492555
C         3.44859762011360   -2.05668772434893    5.88061706851366
H         3.10345430812814   -2.97907853413197    5.43775955153030
C         3.09209194605303   -0.85130344038132    5.29938720795613
C         4.83077991786023    1.60099808277472    7.64674796956982
H         5.28592042973848    1.42846433793700    8.61778892036743
H         4.00963451856162    2.30746815060170    7.75808275052760
H         5.56893659428576    2.07675251906949    7.00069746039776
C         2.23904169754629   -0.77995469994591    4.07501248462316
H         1.38329681710502   -0.12935191271025    4.25403543798411
H         1.88436734852979   -1.76704468035145    3.79135430066879
H         2.80014369067441   -0.35561428406141    3.24140207209981
C         2.43203131166136    6.35480441081209    4.48779272964641
C         2.83048962782660    8.84334465450487    4.60299574585365
C         2.70818244610600    9.61756780191645    3.44255774043866
C         2.92364860326451   10.98115509613336    3.55188430236929
H         2.83226166360269   11.60080315094973    2.67273835862876
C         3.25367904804952   11.54996374297566    4.77045517476371
H         3.41647108014284   12.61492519009700    4.83748991259481
C         3.38418618652231   10.76253989094925    5.90136720615000
H         3.65352931239531   11.21366486826570    6.84448363589702
C         3.17850554577651    9.39324452066307    5.84416039656606
C         2.36862242240478    8.96681511005172    2.13983837068668
H         1.39736308715975    8.47542705742707    2.19665097089150
H         3.10920807900194    8.20679489718142    1.88741330162003
H         2.33552407517426    9.70044169924958    1.33954482111516
C         3.31812850231647    8.52147069829763    7.04997608284823
H         3.71848141497828    9.08725231493478    7.88616662269556
H         3.98358714813701    7.68184923882296    6.84822270121210
H         2.34974374025044    8.11374605155313    7.34210668259891

