70
CSD_code = IGOWOR | q = 0 | S = 0 | Stoichiometry = C25H38N5PPd | MND = 4
Pd       -0.47977213869157    8.84866249814853    3.77656390645360
P        -1.55496444154873    7.18716306811085    2.67660352891889
N         0.79044015020682    9.83703844575219    5.40471937516912
N        -2.96775315044958   10.23098007643489    4.12819950041297
N         1.34347246321220    8.46581682108103    2.72937002294419
N         1.36945358591686    8.18348842224677    1.59571824802697
N         1.49183259837751    7.88855785530967    0.49882687045186
C         1.36578506925750    8.60616211231965    5.95695607205851
H         0.56647828705390    7.95294934827697    6.32474139618029
H         2.05053362527081    8.83012912905773    6.78924912350189
H         1.91988341639335    8.08954883771534    5.16849745485175
C         1.86296463874711   10.68088166097797    4.88776949296631
H         1.45267027763190   11.62400915323228    4.52574715416035
H         2.35246772032067   10.16668472774178    4.05910077635387
H         2.60613497497018   10.89949168050959    5.66776671704641
C         0.05297655110275   10.56225826407765    6.44664162404634
H         0.73748228352480   10.84304127415645    7.26490566365142
H        -0.34583501237152   11.48272585140719    6.00213542718241
C        -1.08101702548009    9.74475209546985    7.00287832696965
C        -1.12450171638249    9.41997594658863    8.34907874969491
H        -0.33236710759210    9.76087627147765    9.00139300494493
C        -2.16743332033958    8.67334244310300    8.87099196968483
H        -2.18337212951601    8.42887543155374    9.92227926240994
C        -3.18807756091674    8.24673112470427    8.03746667024541
H        -4.00956205784643    7.67078881641639    8.43746971489657
C        -3.16202826555910    8.56532953513380    6.69451662624887
H        -3.96098203409454    8.24026371066592    6.04415928569603
C        -2.11078423494606    9.31119045214201    6.15402691440316
C        -2.09667015245112    9.54730729340092    4.71316771659795
C        -3.17690929332694   10.37412482496059    2.76318460600664
C        -4.46658497558188   10.03690690748901    2.30808644060033
C        -4.76352294557070   10.16412095615715    0.96287336877719
H        -5.74394854544389    9.90122007257452    0.59866081997880
C        -3.81544230951357   10.63844378171855    0.07399029102545
H        -4.05438832802449   10.72831532316318   -0.97539149446301
C        -2.57231837969667   11.02808362117543    0.53402793948275
H        -1.86208133691340   11.42885652945629   -0.16999289672888
C        -2.22293858777978   10.90682130659374    1.87304388365089
C        -5.51559155018502    9.61499427290394    3.31399804060751
H        -5.01129236972397    9.09566602228701    4.13540623034511
C        -6.16008326006524   10.87671551173812    3.89750700535153
H        -5.40327972107755   11.49052976963720    4.37890204572591
H        -6.91506016027172   10.61108551817283    4.63449056409360
H        -6.63146159373097   11.45893705976294    3.10841502068971
C        -6.58674239135915    8.68809032236698    2.74099034556475
H        -7.18531478548974    8.27464265513051    3.55049580614376
H        -6.14045756560997    7.86337680115505    2.18812091478595
H        -7.25646665531428    9.22840729622355    2.07646756597990
C        -0.90407703834845   11.45843287202950    2.38039433988695
H        -0.48691097619445   10.75601395628408    3.14410193949551
C        -1.17420138242623   12.80768484614829    3.05739631068393
H        -1.87707593610745   12.69017608212905    3.88050485726172
H        -1.60377820024782   13.50390912733703    2.33869269289847
H        -0.25118704586558   13.23918504458531    3.44196193270943
C         0.16722743440312   11.60515843410993    1.30012679795361
H         1.11855886136840   11.86305307655979    1.76283685925883
H        -0.08303826812781   12.39419644354131    0.59369280967974
H         0.29749964714467   10.66905944972552    0.75973419135164
C        -1.83678298279169    7.38125702207873    0.88152499576227
H        -0.88634958754326    7.59503441186717    0.39036061309950
H        -2.52226261675661    8.20794392498530    0.70117821950350
H        -2.25203140708405    6.45959945368010    0.47413458959155
C        -0.56656504355811    5.64542888552098    2.74308489220643
H         0.38061007914326    5.80312563391138    2.23044029353536
H        -1.10519087830901    4.82934667823357    2.26154897546145
H        -0.36374992604833    5.39031776485601    3.78394008383580
C        -3.18561478503933    6.57149506816070    3.25018484409451
H        -3.12495945520359    6.30808427342619    4.30536830969892
H        -3.47556360332026    5.69443109350293    2.67242927005872
H        -3.93142742818354    7.35100555750975    3.12104508815753

