60
CSD_code = IGOXAE | q = 0 | S = 0 | Stoichiometry = C19H31N5P2PdS2 | MND = 4
Pd        5.49726636512658    1.60710607958968   13.61705934100900
S         7.86210405398811   -1.87074262332898   11.79403709747360
S         4.20745337671505    3.71044493812681   14.15506602869817
P         7.39802426913541    2.36704727443103   14.57327843134611
P         3.66344964013681    0.84824075695312   12.54869801671589
N         6.97844819388273   -3.07534072899153   14.25105910855650
N         4.53032922358264    1.74066618791796   15.97999862478148
N         4.16508758288311    1.51735725196578   17.23622623626018
N         3.48210710738256    2.47630048515902   17.69872831853447
N         3.36365151676983    3.40285217818305   16.73247880305504
C         7.85190260430088   -0.44870233652199   10.82842905953323
H         8.36748247267312   -0.44966758686565    9.88710804799643
C         7.15403401249866    0.56885920478242   11.40199384259092
H         7.03435715841737    1.54456744906010   10.94539429881062
C         6.60016287259582    0.22028462606458   12.66009323185730
C         6.88582136381615   -1.06964565917389   13.01099070458871
C         6.50092333532411   -1.83134336378934   14.17479736987806
C         5.66571888603479   -1.29334543178531   15.16294740753905
H         5.28855378558331   -0.27250358683344   15.07384953737694
C         5.34139282972673   -2.07712044084037   16.25196083057110
H         4.70824914506396   -1.68016733572990   17.03235324100046
C         5.84396906599066   -3.37028979635715   16.32669535228632
H         5.61325478573537   -4.01372273235713   17.16154069652475
C         6.65549491087549   -3.81423347186283   15.29360466438012
H         7.07257907422891   -4.81375236740056   15.29865261049804
C         8.14205206359342    1.16258860698546   15.72714190397685
H         8.39348905105487    0.25295721463335   15.18314145328043
H         7.40804146632339    0.91750172525493   16.49524403107226
H         9.03758287367296    1.58001748935557   16.18702683192787
C         7.31804716338393    3.86992616724386   15.61758097071380
H         6.91387667745601    4.69928788174847   15.03713886360120
H         8.31453292350138    4.12256087040333   15.98032419662300
H         6.66190039364031    3.68282381678019   16.46687426104810
C         8.79470110630043    2.77743524134624   13.46485348583794
H         8.48797319302284    3.56569181035869   12.77702809469467
H         9.06703229179192    1.89421097499334   12.88915335851213
H         9.65050189140630    3.11478770577436   14.04914683645502
C         3.27083878284775    1.84425375395979   11.06712217489772
H         3.17725008342544    2.89056198431759   11.36144660795995
H         2.34285879342889    1.50217734970176   10.60846249032656
H         4.09158380521483    1.75104895600151   10.35497391937462
C         2.10380916355213    0.91685339912509   13.50342689982551
H         1.90159444672227    1.95000366473964   13.78505614008022
H         2.21328139642650    0.31741352313015   14.40797050366637
H         1.27817294196183    0.53264575516497   12.90448418391739
C         3.61336722321456   -0.85911170010962   11.89368631336789
H         3.75711695298411   -1.56404985929988   12.71166538496023
H         4.41799573305263   -0.99619371435707   11.17336401158787
H         2.65386989246281   -1.04518508094828   11.41180212592513
C         4.03046805738135    2.93340915463023   15.64634953777218
C         2.65388162245161    4.64512780129155   16.89226668363608
H         2.71594985698679    5.15058358075862   15.92047369803519
C         1.19875836281043    4.35368550397528   17.24810721044065
H         0.72427941033883    3.76721305135320   16.46395872090094
H         0.65181084386318    5.28463543404144   17.36630777401325
H         1.15549713263084    3.79237421332897   18.17856508186326
C         3.33875662470179    5.48507491100453   17.96737795077348
H         4.36884486868516    5.69573229455042   17.68693197418056
H         3.33511485872808    4.94525006567800   18.91160949362679
H         2.81315041853831    6.42725748275227   18.09299592924452

