42
CSD_code = IGOZEJ | q = 0 | S = 0 | Stoichiometry = C16H16N2NiO7 | MND = 6
Ni       -1.51012857197554    1.00579495260352    8.94050303945752
N         0.12888885874262    1.50654961274641    9.63159769183710
N        -2.15788484088481    1.04029924544027   10.88421212701170
C         1.27397289372446    1.66536626972454    8.99582243602462
C         2.46656693165446    1.98555870617421    9.65036912059671
C         2.47244319546657    2.15140888807545   11.01498810155119
C         1.27276754367478    1.96822270244997   11.72220086588461
C         1.15972173388303    2.09548548319439   13.13778595807727
C        -0.02019650040420    1.89094793757752   13.77382696854980
C        -1.19348701865094    1.52904417841635   13.05091793532399
C        -2.44283075360591    1.27980839538114   13.64397995096706
C        -3.50135645580958    0.92551082652230   12.84286340253923
C        -3.31610337373419    0.81312994289770   11.45854733274138
C        -1.11198996121394    1.39925379328323   11.64975935338677
C         0.12425263673991    1.63395383368859   10.97639920573942
O        -3.18037985302121    0.57186672480678    8.34866139582729
O        -3.53982632074636   -1.61789564407593    8.59309933212799
C        -3.83923394685150   -0.49805011545089    8.16951986230228
C        -5.08476524725952   -0.28720498260510    7.35757967545515
C        -5.10783666604544    0.62926231368495    6.39964253247800
C        -3.85546555214901    1.46292597238352    6.14398357862498
O        -2.94048415819425    0.84130543159317    5.55241298150650
O        -3.82603844308149    2.63340695956746    6.54784160859688
O        -0.93954682518808   -1.24055249421469    8.94864715264463
O        -2.29778710386242    3.21873199903265    8.62589854846281
O        -0.85387474398966    1.25176486937986    6.88471752385029
H         1.25734227596616    1.52871615722400    7.92283154200741
H         3.36962203186066    2.10341783711959    9.07281832159467
H         3.37653041382261    2.40974603099328   11.54573467670522
H         2.04697039817736    2.35909820470127   13.69400255182064
H        -0.09278167861489    1.99127581911316   14.84657733759395
H        -2.55471313494368    1.36720258349528   14.71492292404335
H        -4.47407736144219    0.72777418374294   13.26425890128055
H        -4.13521040956424    0.53042907109517   10.81299973095154
H        -5.89794771969722   -0.96611276525235    7.57236901259366
H        -5.96349220321852    0.78506626358738    5.75958859995224
H        -0.62228572289975   -1.38379457630983    8.05062703056712
H        -1.88890310582317   -1.54966943113615    8.92911708797816
H        -1.76057205987464    3.91359030970723    8.23914558464661
H        -2.97715808595365    3.00838529154872    7.92741201757745
H        -1.66018622400522    1.00082871780518    6.27689787377259
H        -0.80193487099868    2.20135050027793    6.72971912535381

