31
CSD_code = IGUDIX | q = 0 | S = 0 | Stoichiometry = C14H14Cl2Zr | MND = 12
Zr       -0.26006031012341    8.50192474278279    2.91934322316943
Cl        1.72698283038911    9.71618597536472    2.72188662553981
Cl       -1.58259056795899   10.39023680285529    2.49881841438960
C        -1.65852032908012    7.99111142717648    4.81984116224825
C        -0.93368616082911    9.15002033540230    5.20605553715376
H        -1.36540604952355   10.11686788314873    5.43977334748221
C         0.42516717721656    8.79576488880718    5.33994945212921
H         1.21667413894956    9.44507307900758    5.69282380542642
C         0.55641176008973    7.42374922881017    5.03294283160836
H         1.45803578307540    6.83361525049318    5.14876539833377
C        -0.73559496401336    6.91715660113385    4.74378022949590
H        -0.99381536970228    5.87034452370121    4.65213174002000
C        -3.14815558892594    7.93049751636873    4.55128869268476
H        -3.69025169257713    8.02941015554902    5.49794047720319
H        -3.42296530059941    8.78593753789196    3.91948475213630
C        -3.53968937603499    6.63626063210590    3.89552364753898
H        -3.86385623610124    5.85739341052962    4.57386629336508
C        -1.56834278727852    7.27242198957190    1.30646998773533
C        -0.66163187713230    6.32344938661236    1.84339980808903
H        -0.93489875095390    5.39449502461603    2.32638829069134
C         0.64814512399099    6.68765776089183    1.44174811045831
H         1.54806051915451    6.10799473558216    1.61114282602866
C         0.54650621624078    7.82724634192655    0.61425751467993
H         1.36099833966945    8.29299497277183    0.07364310054941
C        -0.81335907288202    8.19311195053122    0.53187786511694
H        -1.22299253276428    8.98628354956321   -0.08366429263606
C        -3.06948250555169    7.31014156164024    1.50659218483726
H        -3.36320257219130    8.34225507467114    1.74144164689538
H        -3.56619487236488    7.02822874670857    0.57185581353970
C        -3.50586943733217    6.37136605096369    2.59583947756136
H        -3.80341553485489    5.38590286282089    2.26089203652807

