49
CSD_code = IGUDET | q = 0 | S = 0 | Stoichiometry = C20H26Cl2Zr | MND = 12
Zr       -0.08726789598413    1.61066116787568    3.31004971995366
Cl       -1.26540143085688    2.66277456970610    5.03312296525051
Cl       -2.06143907575597    1.69823683891970    2.03070006524879
C        -0.85345220829897   -0.40010788467600    4.54517164513234
H        -1.73428276442891   -0.39273581812405    5.17759031304872
C        -0.80940844328510   -0.80781455391036    3.19403563695344
H        -1.64854582679567   -1.17317550058542    2.61538810757878
C         0.53315684478327   -0.76148932127549    2.76433426671515
H         0.90380355393827   -1.12519332620006    1.81344897807622
C         1.32790807918740   -0.35378769149981    3.86409134740996
H         2.40875725756367   -0.39448135741068    3.90579436621229
C         0.47071469787097   -0.11879963455491    4.96882380350992
C         0.90664787785415    0.30219775245740    6.34651559216413
H         0.02386454373346    0.45259769223285    6.97398140709343
H         1.51615917034048   -0.48616958533321    6.80246374973213
C         1.71627057880020    1.60564448094220    6.29842262773746
H         1.09684799468637    2.37830820297398    5.82476049968771
H         2.62122421511167    1.45223641219017    5.70049722795049
C         2.11937496399079    2.10044370531515    7.68609561178041
H         1.22060671789880    2.28517492236944    8.27704905927896
H         2.70430053179279    1.33046036093061    8.19518534428667
C         2.94850555215762    3.38648169432025    7.60847030895205
H         3.29896021827138    3.62863167432760    8.61712432534202
H         3.83022863832360    3.22002095059668    6.98479894787888
C         2.17683855845554    4.56363444737373    7.09434309686322
H         1.23219168848146    4.75015109189851    7.58852037968642
C         2.60183988510803    5.38409695283735    6.14596805287903
H         3.55107169032509    5.19153272632529    5.65773223183480
C         1.89252465621115    6.61701499856542    5.67746822646938
H         2.60396752160960    7.44705311236293    5.69742251100765
H         1.07182689435101    6.85664146672128    6.35542140786800
C         1.34078156514741    6.46888420160501    4.25142332276442
H         1.14329228972883    7.45968067521588    3.83693135734878
H         2.09409500887440    5.99686552213557    3.61849390034723
C         0.04885916879426    5.64874197691871    4.24205895082062
H        -0.78129304803311    6.29732681314701    4.52793745061220
H         0.10987218265969    4.85655315738794    4.99157434097171
C        -0.26065567472606    5.02501339770255    2.87817624079137
H        -1.31182827067563    4.70424611456336    2.85971869305283
H        -0.13991097778059    5.78414934704135    2.09674033531028
C         0.61114761349461    3.83592343647541    2.55354931744229
C         0.52374849371597    3.06636681161555    1.36782542489341
H        -0.13752345681472    3.27035931926745    0.53462021080232
C         1.51517857756698    2.06155230588975    1.40754469995564
H         1.76210838283265    1.38879581831294    0.59559984817526
C         2.24219576462451    2.21843955507549    2.60670407036266
H         3.16908513093850    1.71717996132079    2.85326421176289
C         1.67650211629533    3.30031029275641    3.32803180378926
H         2.10615044791364    3.74747074589043    4.21411399721445

