137
CSD_code = IGUDAQ | q = 0 | S = 0 | Stoichiometry = C60H58N4NiO12S2 | MND = 4
Ni       14.57650046872670   14.75000734117709    4.08749777790521
S        15.57899837304937   15.11491225055762    2.21630885209299
S        15.82313458167373   13.04443509485595    4.48418397863553
C        15.30196443705586   16.74804714409561    1.75055013733296
C        14.99336105258496   11.96804868852035    5.54553153917946
N        14.28316731733897   17.52944854907170    2.07592093584118
N        13.95446961573280   12.20788621044887    6.33229354248372
C        13.41203921709844   17.22570090891999    3.03495023045162
C        13.33775547987981   13.38692679967166    6.37090999503023
O        13.53326890383443   16.30735216928473    3.88106026286990
N        16.17507687812957   17.26511930718303    0.88065540916140
N        15.49034135454857   10.72685480321752    5.59240142151242
C        17.33536374187853   16.56730039846014    0.36762181788150
H        17.00795634576898   15.69975738364917   -0.21867641386483
C        16.68026658215712   10.31581893371081    4.87846570348072
H        16.58081575750915   10.57912672678158    3.81788990767768
C        18.02061030082013   17.60747327243389   -0.55792714370140
H        17.82706136517936   17.35451349565878   -1.60152246158868
C        16.71090203229004    8.77642007831901    5.05849889227428
H        16.34458806178046    8.29417786055350    4.15070733642905
C        17.39999805517189   18.94931456255823   -0.17398848051217
H        17.35575594706332   19.63858871576420   -1.01402270022650
H        18.00671284480250   19.39731614368132    0.61580329323550
C        15.79593948947502    8.50628234459635    6.25141107086332
H        16.39334847067701    8.54868438477347    7.16423962156198
H        15.32043898711267    7.52987255441932    6.19314603059979
O        13.52119016803236   14.35671076427544    5.59789351525704
C        16.00358896672244   18.60436660907621    0.35494241648538
C        14.76699141687415    9.64247514111866    6.22490162922100
C        18.26840337664780   16.07938610070696    1.45240169718611
C        17.94143764786934   10.95426773663945    5.41779943218673
C        18.94487336345498   14.87669677569374    1.27847876953023
H        18.75855222650985   14.28333747069892    0.39563708167037
C        18.96759045085484   11.31086217279444    4.54865283163960
H        18.81857441035759   11.22192129414411    3.48308692464219
C        19.85005416433929   14.43881534027828    2.21817944695716
H        20.38214271508669   13.50975441492568    2.08940497005504
C        20.17495639343929   11.76239969922015    5.03532601829434
H        20.97882017953303   12.03862727199836    4.37273272169048
O        21.01737493619651   14.67861726778479    4.22443694069789
C        20.09275729545388   15.19003036096196    3.36923680752825
O        21.62201630175668   12.30097771454230    6.79509815945214
C        20.38170971706143   11.88155504318376    6.41039853438701
C        19.40627149011645   16.38463531308955    3.55341172269393
H        19.56555704912904   16.98615392502981    4.43424580344045
C        19.34359467537308   11.57169436209935    7.27960221717421
H        19.46049705830961   11.67165057391133    8.34710773795709
C        18.51016628693952   16.82441954170502    2.59531693667508
H        17.98648669356067   17.75496223873426    2.74860790647260
C        18.13900964187884   11.10768184682776    6.78052409645581
H        17.34535550696216   10.86437382906373    7.46721294359151
C        21.22055564272690   15.31810761435771    5.46017832012449
H        21.63942249565069   16.32197836783764    5.33135095956576
H        21.93166361540460   14.69174906103543    5.99570635615039
H        20.28953511464399   15.38124557720989    6.03259787342174
C        21.90154047204365   12.39126617105627    8.17059045099943
H        21.27174803606693   13.14018582568059    8.66259690674233
H        22.94444943997068   12.69768152801975    8.24152901662668
H        21.77523828331046   11.42573861456521    8.67060598426193
O        20.13983496422268   18.38244025971216    0.32423445345457
C        19.52436929350846   17.58926808972231   -0.33474154799594
O        18.58952582054495    7.99569387597414    6.37405221703994
C        18.13424672676510    8.30504763220356    5.30641669385566
O        20.07756578261717   16.56326823433284   -0.98163151139208
C        21.46973998964038   16.36001785729520   -0.77059140538287
H        22.01142812463356   17.30033891372272   -0.88688126571133
H        21.78899947245182   15.63539727877783   -1.51486740156810
H        21.63614146587197   15.97249120736211    0.23660961390371
O        18.81815422316581    8.27481074063822    4.16295501793148
C        20.19955520205621    7.94877835307635    4.25889920224434
H        20.74805714505957    8.79342820463351    4.68088913264151
H        20.53656253284531    7.74410154897493    3.24620339658806
H        20.33857895389551    7.07530859313447    4.89834021633920
C        14.90206205210422   18.64923091490983   -0.72821434166275
H        13.96942896671103   18.35356284646938   -0.24462334009445
H        14.80332018081013   19.68454672355943   -1.05622259771994
C        13.48544416872536    9.29159738251957    5.43084997909402
H        12.99682090797069    8.46128015338749    5.94160003932416
H        12.82591523875368   10.15932378663553    5.48984588126837
C        15.18644371956586   17.74434847680728   -1.88816226463163
C        13.75832797748327    8.95264206893395    3.99633785752761
C        15.75411073021391   18.23562689325894   -3.05784634902495
H        15.96432193786860   19.29207923289787   -3.14751030062551
C        13.91418697492219    9.96112260059983    3.05182322655231
H        13.79779846216526   10.99471838778679    3.34454086418015
C        16.04468059759950   17.38757357651038   -4.11250984032704
H        16.48492958444754   17.78413427394352   -5.01576631821158
C        14.20960214512872    9.65605890472583    1.73518601830004
H        14.33467954804957   10.45304948670030    1.01736891251451
C        15.77024755864841   16.03451801924648   -4.01104080930973
H        15.99911634228684   15.37183446423787   -4.83238766856631
C        14.33883980880328    8.33549599553713    1.33969724736190
H        14.56737092462679    8.09607049134605    0.31177024768142
C        15.18874936626460   15.53759695022705   -2.85668279774251
H        14.95944320553201   14.48515390415405   -2.77646282594873
C        14.15944946292289    7.32213376681486    2.26578218001632
H        14.24288328537807    6.28906980315285    1.96095737840693
C        14.89397191660283   16.38739947792572   -1.80552701744683
H        14.42811833471415   15.99662121017423   -0.91249174396208
C        13.87199096040917    7.62972718923653    3.58427772579787
H        13.72757992827922    6.83270833826066    4.30010427468493
O        14.78793909128212   20.44483312871249    1.35428063858480
C        15.59236688317238   19.56018277303327    1.48055604349368
O        13.28016010457080    9.71574296321537    8.12866953821503
C        14.33520861783288   10.02748762119252    7.64303722939541
O        16.32273721815962   19.36769361801351    2.57977120569239
C        15.98549346609953   20.17383062359131    3.69999764168130
H        15.94548648532601   21.22556624415566    3.41052962485886
H        16.76151203531727   20.00559815235023    4.44251635057510
H        15.01049744224371   19.87485721296853    4.09078662957899
O        15.30263972989330   10.65444102961898    8.30846715884356
C        14.97531204789051   11.09406701173270    9.61998037221055
H        14.26216521484407   11.91894276255558    9.56545668889836
H        15.90690039343885   11.42370225015719   10.07309587521442
H        14.53294221319914   10.27698923901490   10.19305440547240
C        12.20665774740659   18.08162887966096    3.12654651091495
C        12.31667525329798   13.56229240667589    7.43188414417399
C        11.20764126023465   17.71285899158879    4.02810638661327
H        11.34917167542688   16.82562114120971    4.62740994838738
C        11.74169793925755   12.48421491025789    8.09750427088648
H        12.03585716685026   11.47894351427284    7.84821214352663
C        10.05891980195765   18.47048299045662    4.14077033845433
H         9.28755195824445   18.17940355539553    4.83883268643436
C        10.78688020925460   12.70917988897568    9.07299997867043
H        10.34401541621924   11.86887097080496    9.58645285543760
C         9.89646930089932   19.60237279525008    3.35690901723824
H         8.99776614641257   20.19554419311643    3.44506599307420
C        10.39731467562206   14.00063949571577    9.38905599914169
H         9.65179523236367   14.16949090665608   10.15250557186357
C        10.88701154321551   19.97286732837253    2.46156396061881
H        10.76329735984629   20.85657600360777    1.85357415810287
C        10.96120822698494   15.07672429161289    8.72127248423634
H        10.65567716417170   16.08443737127054    8.96252053828075
C        12.03933869348865   19.21802805741460    2.34006456235351
H        12.81540058380768   19.51673528272392    1.65596292473109
C        11.91374559761288   14.86035404897054    7.74516830322698
H        12.36179122629187   15.68707054529585    7.21413370553333

