69
CSD_code = IGUFIB | q = 0 | S = 0 | Stoichiometry = C28H30N4O4PdS2 | MND = 4
Pd        1.08578373262604    1.36797411514293    8.16766808371485
N         0.17814278792546    2.88853721364805    6.97658179196809
H        -0.68224140750218    2.49614121223377    6.58397738797068
H        -0.12254066909444    3.44220063434568    7.79745847680434
N         2.86559291316867    2.15035389755421    7.71914852550530
N         1.99340286258666   -0.15295107599052    9.36109749977979
H         2.28877192136296   -0.71003617764779    8.54111673102419
H         2.85592730301086    0.23701105196823    9.75108486447995
N        -0.69384749390204    0.58616428502290    8.61670633547956
C         0.88435801953973    3.64504276016372    5.99851875673244
C         0.23507109710453    4.00902006962331    4.82409379565805
H        -0.79386877466773    3.71154356727372    4.67817554865103
C         0.88928082574894    4.74135091632318    3.85156382242020
H         0.37076937497817    5.01816660999177    2.94645500365086
C         2.20703080073193    5.11434034622491    4.04722141532281
H         2.72742166583279    5.68634232283033    3.29451808684840
C         2.86267857100462    4.74085904859268    5.20688018495756
H         3.89811447134746    5.01165278925771    5.34882892567805
C         2.22209548536861    4.00549958221439    6.19533768235087
C         2.98406497325445    3.56086441634020    7.42119341536635
H         4.04839353264296    3.77647922767054    7.26210453472125
H         2.64688415295568    4.12355709263772    8.30316265977635
S         3.40249609188799    1.18285629959563    6.56225920545153
O         3.33359878806464   -0.17242418497662    7.09378747549349
O         4.68500117087321    1.62103306887861    6.07261402963657
C         2.27311873723471    1.15311900852283    5.15181255070693
C         2.66955376847905    1.73524534405865    3.96511241757010
H         3.64828893050410    2.18480346118793    3.91515948517948
C         1.81514044923851    1.72811675488493    2.87608634785539
H         2.12581559878005    2.18744682023372    1.94932754071090
C         0.56115995148637    1.13694450062596    2.96527823742186
C         0.19442813889468    0.51657385496430    4.15705835420356
H        -0.76609574795565    0.02530950831179    4.22513086409743
C         1.04818351608902    0.51050896156865    5.24741200857525
H         0.77339692641182   -0.02695392082208    6.16242725585360
C        -0.37898417542806    1.13572971898677    1.79887620728798
H        -0.01825433485873    1.78710623285373    1.00747121571779
H        -1.36948747370147    1.46801920880599    2.10450120232659
H        -0.47751798288450    0.12780001448533    1.39661918266463
S        -1.23324131040630    1.55335852114042    9.77310906657603
O        -1.17001278244821    2.90777464882219    9.23813942926456
O        -2.51319393304290    1.11134956871280   10.26533704179504
C         1.28648711676203   -0.90520136676818   10.34202909514068
C         1.93502077385027   -1.26691754820963   11.51742880653090
H         2.96416006926223   -0.97024513216121   11.66345264570618
C         1.27908222823532   -1.99672331156563   12.49080012955747
H         1.79733702107522   -2.27446178243451   13.39578905709017
C        -0.03957916121531   -2.36692075800239   12.29624750213388
H        -0.56120268178873   -2.93597491460574   13.05033061206167
C        -0.69451570309640   -1.99484944793369   11.13572542440164
H        -1.73057667995502   -2.26360484744475   10.99459546554137
C        -0.05156343798506   -1.26464936196660   10.14518566877688
C        -0.80944322166284   -0.82464095627097    8.91544575855576
H        -0.46528137400910   -1.38669692926912    8.03573601658765
H        -1.87373580245698   -1.04411347454304    9.06912357785106
C        -0.10211277601016    1.59125521493451   11.18185553378016
C        -0.49684702844411    1.01426428249858   12.37286914665196
H        -1.47492872325439    0.56371265074072   12.42637604808978
C         0.35864095397674    1.02831353446645   13.45919034940096
H         0.05263177456440    0.57419033521787   14.39014842201190
C         1.61412614344524    1.61994863068406   13.36502034655965
C         1.97834116521674    2.23370992628870   12.17130016219472
H         2.93789809174161    2.72565684414627   12.09579455225895
C         1.12115394577779    2.23400262386228   11.08181197727673
H         1.39436952255892    2.76807618840520   10.16436400098732
C         2.53883103048799    1.62347455954071   14.54365760200455
H         2.49638207455411    0.67139049361913   15.06787087491228
H         2.24412186375735    2.40352790380966   15.24573139797468
H         3.56382234136675    1.81434534668351   14.23640717875590

