28
CSD_code = IGUGOH | q = 0 | S = 0 | Stoichiometry = C11H9Br2N2O3Re | MND = 6
Re        7.88769711167876    2.55140642392316    1.03597188494603
Br        9.35610026071313    4.47842695777073    0.95233258432831
Br        9.57444401905954    1.19840300607892    2.13133518672560
O         8.10574918395315    2.01087348913718   -0.51146676508612
N         6.11697429751480    3.78084567499961    0.40524666756509
C         5.21240671018979    3.78144171803752    1.37281599327753
C         4.00852230680864    4.45033339631709    1.26997099574751
H         3.31153762813199    4.42619328554815    2.09152468870792
C         3.76886452719309    5.15878287454464    0.10133708359180
H         2.85028171888936    5.71316783315794   -0.01552743935627
C         4.72329412289408    5.15492588197208   -0.90636779324917
H         4.56774766108066    5.70020428303010   -1.82273642257970
C         5.89746520079983    4.44513695221455   -0.71673315635476
H         6.68629162708096    4.40378472192309   -1.45417212201741
C         5.68692566206621    2.96417863210099    2.58952495071599
O         7.02692164353829    3.07406303804709    2.64432325656912
O         5.02669060777676    3.33902402028501    3.75982987499478
H         5.69124820448650    3.64807364041359    4.38959368628579
N         6.30121234069147    1.00587212786210    1.40383397353732
C         5.36337121332973    1.51300480044020    2.18986321519645
C         4.25261461364909    0.79499337087080    2.58735357685774
H         3.52474086355675    1.25272273426253    3.23682597224837
C         4.14760493847506   -0.51606368349169    2.14567889046727
H         3.30706681734205   -1.12202204019922    2.44746165454562
C         5.13586135784747   -1.04019199771463    1.32401055229517
H         5.08418306385330   -2.05645623918553    0.96931512696859
C         6.20875852069448   -0.23942956575167    0.96908066364053
H         7.01712377670488   -0.58299533659439    0.33957321943097

