67
CSD_code = IGUGEY | q = 0 | S = 0 | Stoichiometry = C24H36CoN3Si3 | MND = 6
Co       10.07376276878020    4.85493938507033   17.51474576635091
Si        8.20589477828721    6.10332281841610   17.25394329469943
Si       10.84757227047667    6.06157229488399   19.26478404958577
Si       11.26641178688391    5.99978198940192   15.97110240180746
N         8.93547903090540    3.72382412913080   18.93056527531517
N        11.80644801801998    3.62737593228467   17.79335686134811
N         9.38590049636964    3.66390942349065   15.87729941218989
C         9.52446502295327    2.80610218785029   19.69331244222813
C         8.95332320113684    2.26781308999395   20.82958177492994
C         7.69524489726171    2.71374637478526   21.20821146133504
C         7.06477914890278    3.63812405910702   20.39999079226416
C         7.69793243900495    4.11662176839167   19.25208424795724
C         6.98225917464069    5.03565751894775   18.33786915504351
C         7.95668719500131    7.90736824943619   17.88809965460822
C         7.29541995339311    6.15754817192264   15.54036677332452
C        12.13021127383755    2.69953322383568   16.89618703817687
C        13.37239790860521    2.10061959271652   16.82212906349782
C        14.34739398052218    2.49361897043933   17.72760555497877
C        14.00526486165707    3.42858971620833   18.68356818038534
C        12.71896192422857    3.96921507112704   18.70993977408241
C        12.32552980996378    4.89942225444806   19.79220798076476
C        11.63413567675067    7.81936842823501   19.16290310701358
C         9.81902870322910    6.18332453436186   20.90659159792410
C         8.40841372569560    2.77735466173078   16.04932949622023
C         7.70161807853781    2.19977916153725   15.01306564491389
C         8.01845461123441    2.56942310888712   13.71387597419165
C         9.05474662527632    3.46208302798809   13.52868376358468
C         9.73867318685383    3.98411621360624   14.62748120667223
C        10.90792910548084    4.86912057226238   14.42041143242060
C        10.89009341563477    7.78794790763524   15.35491585691250
C        13.20663357335388    6.00411084525588   16.03441218385715
H        10.50551434232228    2.47849452162226   19.38093747366235
H         9.48427031417393    1.52768422886657   21.40800225707567
H         7.21804978061567    2.33940562323559   22.10213587112260
H         6.07514236765660    3.99471445798322   20.64308861928184
H         6.28252923277911    5.64808398223456   18.90308021243981
H         6.38670171553817    4.42652119414647   17.65614519191501
H         6.91507154154861    8.20309008838141   17.80831080883964
H         8.26059580818999    8.01893774743708   18.92118010504423
H         8.54345322185821    8.59902995838013   17.29724814601607
H         7.91654955381694    6.62305262685702   14.78435931040893
H         7.03136585803980    5.16858044908375   15.18008132766884
H         6.37977613542440    6.73620352158717   15.61598371263829
H        11.35677143139429    2.41472583283692   16.19758207537494
H        13.57382691011655    1.35538021704133   16.06827639011242
H        15.34110556388554    2.07133580619317   17.69328517332909
H        14.72511070667227    3.74556506121360   19.42314231880848
H        13.19462300716926    5.45679874279935   20.13577764097582
H        11.98277803470914    4.29924932866253   20.63641199793881
H        12.39582649094829    7.87803714735113   18.39564691696475
H        10.87737279508005    8.55795674542362   18.93086762950687
H        12.08713136150394    8.09436080366275   20.11063059213645
H         8.88501234774758    6.70743938935337   20.74283740268131
H         9.57672370513737    5.20838642822322   21.31681172543988
H        10.37484108393942    6.72996543133142   21.66236223679878
H         8.17567997588621    2.50940698602304   17.06976522916952
H         6.91720293313609    1.48803660885264   15.21890784355547
H         7.47829095091524    2.16173577864779   12.87188515265152
H         9.35096163270072    3.76001915906295   12.53411725987878
H        10.77702301991746    5.44483791305792   13.50626071616617
H        11.78130194208483    4.23319269308998   14.26786135545737
H        11.48880581934630    8.02828873929552   14.48164443045864
H         9.84707932550418    7.91500332959958   15.09383019706610
H        11.12548632405387    8.50972725083298   16.12656906527169
H        13.56607258903085    6.49627990886420   16.93029452267751
H        13.62344091622928    5.00225520784300   16.02484072915273
H        13.61224461804790    6.53808240753625   15.18041714372902

