58
CSD_code = IGUHEX | q = 0 | S = 0 | Stoichiometry = C20H32Cl4PTa | MND = 10
Ta        6.64807654612355   15.33691766523768   11.91232924211311
Cl        4.56455586266298   14.61183031746712   11.18509248812841
Cl        6.65261134266952   13.52209440027493   13.43161181710503
P         5.69256547899831   16.32849812825439   14.07090722396265
H         6.26709715339317   15.82625931424758   15.22988762099049
H         5.97290319456227   17.67561372629345   14.24796301776769
Cl        8.29407884921446   16.38610638517478   13.38338017222885
Cl        5.99392854289597   17.53329732123872   11.31187661053851
C         3.89932838823663   16.28831375707985   14.53016566541653
C         3.44447040751630   14.83111982780800   14.61541424539174
H         4.03282052206128   14.30242839591039   15.37179722220217
H         3.60655958400272   14.33400237127294   13.65510396135069
C         2.21668187354201   16.93256428157595   16.24504416667097
H         2.06877855950005   17.42222728353804   17.21411267886019
C         3.70287015900423   16.97369447830401   15.88350800303173
H         4.28888175212553   16.46114066001592   16.65244370058354
H         4.04646443355888   18.01134223199750   15.83230394038538
C         1.61807760180504   16.98277061297706   13.82165464870867
H         1.03934182671331   17.50705979955493   13.05405557638855
C         3.10081143039839   17.02466812692366   13.45407271301174
H         3.44440807226888   18.06121446644503   13.38134219176282
H         3.25929546027124   16.54877772052689   12.48243711089042
C         1.96044847145917   14.79588260407957   14.97897338198938
H         1.62672427833364   13.75473435086534   15.03975036443587
C         1.40987527003106   17.66521763851610   15.17343949909225
H         1.72758195889357   18.70876348855380   15.11642400867903
H         0.35027152406638   17.65216044566597   15.43679622418832
C         1.15922317804560   15.52703887155553   13.90208981663794
H         1.30949693933762   15.03987453903311   12.93693173688355
H         0.09405902289295   15.48583627833880   14.13952915961738
C         1.75165803674071   15.47909065080198   16.33027529129695
H         0.69503800543411   15.44587950970281   16.60367644277779
H         2.31423406334446   14.95263951817397   17.10456503370778
C         7.78316464135029   13.33585214853234   10.28336339410355
C         7.03613354762247   13.97447251006088    9.26718496495980
C         7.42092893701465   15.33409369556091    9.21550279711965
C         8.43017339430811   15.55255116458838   10.20165956661442
C         8.65639712225016   14.29983523986794   10.87071474888383
C         7.75314526182886   11.89673989862905   10.66600817649285
H         6.99673903475530   11.35247074212476   10.10804639301926
H         7.52742973098509   11.80096962637535   11.72956665068629
H         8.72518922693917   11.43521274768015   10.49007187443824
C         5.97951131975675   13.34128771501438    8.43165809882031
H         5.92992944603380   13.80046731877083    7.44709268049678
H         5.00633202232484   13.46879838091266    8.91538234621379
H         6.15901916744146   12.27586968137814    8.31059403804244
C         6.94030585545414   16.37541019907206    8.26476801017124
H         7.75187426726896   16.69990065519643    7.61251599220277
H         6.58816865156898   17.24818567368956    8.81698805617299
H         6.12145224800432   16.00639168294522    7.65387355091234
C         9.32187426141582   16.75341825196891   10.23957910350233
H        10.07878387856965   16.68454403054798    9.45684571897702
H         9.82573979229356   16.83518385996594   11.19950989955634
H         8.74153103995216   17.66042247408675   10.07816377011549
C         9.82296710630662   13.95434680208462   11.74116951757044
H        10.63064577870242   13.53641509417882   11.13827430715602
H         9.53287056506015   13.21556394698153   12.48669876925651
H        10.19887591271367   14.83383729239677   12.25771259770099

