122
CSD_code = IGUPEG | q = 0 | S = 0 | Stoichiometry = C61H55ClP4Ru | MND = 6
Ru        1.28610675565790   10.52915430225103    5.60678764418223
Cl        0.61444051703104    9.21662704445184    3.68409219167434
P         0.67008913130269   12.41683491211352    4.43252613493316
P         3.24432752830948   10.78001822156206    4.40998491456684
P         1.98673972743518    8.69984611260656    6.78271435800603
P        -0.71358771698300   10.09788183776613    6.64684397098664
C         1.85089088204235   11.40717406989221    7.32699088094875
C         2.27019691018745   11.75336612618885    8.41463455213701
C         2.80551229396196   12.20390085932062    9.64373649226960
C         2.99477600865877   13.56448643904297    9.89703429946644
H         2.71561971121409   14.28853723818194    9.14347242218163
C         3.53720511999595   13.98178520550065   11.09402558589073
H         3.67898076037294   15.03843138289587   11.27910367146452
C         3.90892682926536   13.06481844724355   12.07220553428264
C         3.72248812949804   11.71214298006506   11.81643629361691
H         4.00847707154680   10.98386219011860   12.56371593583905
C         3.17811269292690   11.28195326154456   10.62340589302694
H         3.04367057829360   10.22543672977322   10.43335617482569
C         4.50494728870447   13.53901026072181   13.36386109225117
H         4.64160520095282   12.71170928473587   14.05637850905250
H         3.86193310921962   14.28336836116054   13.83260502405151
H         5.47546667990626   14.00355578096578   13.18642198103837
C         1.91154698348438   12.73267129666684    3.07551573950675
H         1.40417625135068   13.11689958239574    2.18486073404701
H         2.57883051380020   13.51568066568398    3.45993916045662
C         2.72074254645028   11.47872874376712    2.77564540414536
H         3.60071904407668   11.70367259077282    2.16313644999762
H         2.10713996964522   10.73085895016082    2.26844453046807
C         0.76014131796742    8.27466716878809    8.12926638165225
H         0.29588517575100    7.32251831521431    7.85215340903269
H         1.30433533302191    8.13344482688817    9.06754521741363
C        -0.29089118116082    9.36733484353585    8.29049481929360
H         0.12316469872733   10.19723515689508    8.87342743443016
H        -1.19278854504221    9.00882968381941    8.79768029970784
C         0.56186995510534   14.13350970759785    5.05484963869532
C         0.96906181716268   14.45842369732502    6.34033993040403
H         1.32564980107413   13.67266324034413    6.99049842785910
C         0.91451774788670   15.76986201814822    6.78044476731288
H         1.22575141605927   16.01444484324744    7.78616143003111
C         0.46024195754471   16.76730517766894    5.93649437764288
H         0.41462575550593   17.79090633309423    6.27909752038555
C         0.06355004977938   16.45080772093656    4.64621908496653
H        -0.28793952278356   17.22839460220608    3.98314727048598
C         0.11401971206349   15.14286297852865    4.20550622655168
H        -0.20542893811856   14.89892129885948    3.20131028547112
C        -0.91148515062665   12.34694491456755    3.53146928336858
C        -1.02651821926203   11.71016962428418    2.29947951567885
H        -0.15564503695538   11.28165746046171    1.82670631126271
C        -2.26469247328820   11.59504872812108    1.69230277673337
H        -2.34696428635889   11.09711187545867    0.73688388851632
C        -3.39516474209562   12.10560934247951    2.30850144194358
H        -4.36074632639261   12.00991176248026    1.83326741652565
C        -3.28685274588288   12.73647589795573    3.53785736702022
H        -4.16547368060018   13.13413632142213    4.02501452120804
C        -2.05316226899622   12.85495467490242    4.14908070514561
H        -1.96552733159679   13.34757146692641    5.10847050621165
C         4.52188077949585   12.04425215258390    4.75812644181308
C         5.66496254765148   12.14293368611441    3.96911780946533
H         5.84698213539455   11.41642203849156    3.18821737429883
C         6.57219793536423   13.16174360480866    4.18960923606508
H         7.46044752027410   13.23073724628100    3.57785329094678
C         6.34480847837401   14.09572601527853    5.18909127566978
H         7.05801114730812   14.88974688171214    5.35628978262276
C         5.20416999112629   14.00900633099052    5.96811596996051
H         5.01978022549367   14.73519328117023    6.74616806524700
C         4.29545707672898   12.98801303906729    5.75141622717806
H         3.40502065159604   12.90338143023869    6.35989775302140
C         4.25404053789866    9.34238203930315    3.93171209263087
C         3.79313625480896    8.45007141875346    2.96750887271793
H         2.82858106072176    8.60097401742893    2.50746923662969
C         4.55319894158822    7.34937923986725    2.61708660735966
H         4.18658201607867    6.66582624598460    1.86520626797166
C         5.77498921708943    7.12092008807853    3.22638845435357
H         6.37107515075204    6.26466676440106    2.94524477550496
C         6.22813414618221    7.99077071816734    4.20453336228659
H         7.17511935071374    7.81194716995211    4.69419645687376
C         5.47302397573206    9.09269653261304    4.55971158090668
H         5.83819019614413    9.76741734145222    5.32110885487014
C         3.54582568468444    8.72090059821951    7.72644316521694
C         4.44381006492107    9.76776769863388    7.58519155689833
H         4.21000709394746   10.56852433389847    6.89621662425100
C         5.60589125616276    9.80274972402339    8.33498028790064
H         6.28966891114792   10.63257827909124    8.22750114405951
C         5.88393893032506    8.78090881702709    9.22608481342629
H         6.78545319331514    8.80914690184680    9.82042975664630
C         5.00515320119925    7.71605614163295    9.35234797588093
H         5.22754237454121    6.90983231238362   10.03690698459962
C         3.84182878708156    7.68269042321484    8.60688591180605
H         3.16560818084556    6.84237352654149    8.69812510970162
C         2.12686301879578    7.10546193515559    5.91489154239587
C         3.34989973255378    6.48728226630300    5.67910982179831
H         4.25955288516674    6.91494972689867    6.07694083043636
C         3.40441385734445    5.32309822115617    4.93452952921610
H         4.35768643181761    4.84288679097884    4.76634867409728
C         2.24895829441999    4.78145167506579    4.39775166723646
H         2.29840215952294    3.87710555430781    3.80851961746658
C         1.03069678500929    5.40665768416527    4.60828035983891
H         0.12726967639757    4.99981308603313    4.17732612510143
C         0.96920980359897    6.56239527884449    5.36138507696754
H         0.01851463322359    7.05838183927820    5.50658450451949
C        -1.86951593649159    8.89808762010311    5.90611932988236
C        -2.27840590172721    7.70791460218178    6.49885350609265
H        -1.94215407806952    7.43372792297149    7.48826032141519
C        -3.13189167733287    6.85294904665409    5.82205811262544
H        -3.44074063458219    5.92872416975421    6.29011559979298
C        -3.58400560638069    7.17230209726304    4.55310179017010
H        -4.24223587698466    6.49514793623545    4.02828187658509
C        -3.18932710935821    8.36062666145370    3.96036789432096
H        -3.53669310631496    8.61993644286845    2.97106784763245
C        -2.33786646356049    9.21555597707659    4.63210006220416
H        -2.02002527104894   10.13907897527923    4.17220095593711
C        -1.86215150307630   11.41511269567836    7.16630351726206
C        -1.30658594477421   12.49546670172758    7.84683678980561
H        -0.24650855796852   12.48803491009637    8.05936084325226
C        -2.09587448086039   13.56002733533362    8.23582652857982
H        -1.65302071309037   14.39745212484627    8.75506575845269
C        -3.45281306638717   13.55390116065700    7.95324393730484
H        -4.07213711257102   14.38773407764136    8.25030542262705
C        -4.01342610395151   12.47571417941359    7.28977163116790
H        -5.07251130423616   12.46499453779093    7.07486224077841
C        -3.22531488937233   11.40893851797019    6.89349001209674
H        -3.67339376010513   10.57821565014007    6.36770932416973

