64
CSD_code = IGUVUC | q = 0 | S = 0 | Stoichiometry = C25H34ClN3Pd | MND = 4
Pd        2.35219429965610    7.47357598565548    4.10437623570881
Cl        4.28260696108283    8.87957505787759    4.13218112062210
N         1.69697836075068    9.51052077208112    6.08249044955438
N         0.40549586053445    9.74105794760084    4.37524900306178
N         3.42775302066618    5.85704746631194    3.31279195829596
C         1.35314861557256    8.95141924380446    4.91171661482217
C         0.98913534426775   10.66569443779999    6.27429174507924
H         1.11516872274241   11.28104555642787    7.14145738920864
C         0.17572430621835   10.81058066045684    5.20163090801820
H        -0.52333723767258   11.58493503159657    4.96690351560516
C         2.67437126693526    8.96095941729762    6.98393656517449
H         2.30195724803513    8.99309888345993    8.00883139413133
H         3.61058049351437    9.51971536166876    6.91519674929345
H         2.86559842527811    7.91838747987674    6.68494588645919
C        -0.33520302914526    9.43632645313408    3.16291014514781
H        -1.40078044639565    9.42923860296182    3.40085260147192
H        -0.05792200044647    8.41215760506260    2.88928509258017
C        -0.02090636610401   10.41647058656894    2.05452243428300
C         1.12942771709145   10.22077343934454    1.28091822809881
C         1.54909336761180   11.22605595650212    0.40551273589029
C         0.74410366633212   12.34451049085152    0.18286504440750
C        -0.48679472895634   12.45171458906500    0.83304116066329
C        -0.83383031800582   11.53043575761783    1.82698463999755
C         1.94363642343148    8.96244509848326    1.37434501137341
H         2.70954421483066    9.06487136623456    2.15891276876998
H         2.45213453658719    8.77489885956218    0.43269056354243
H         1.32338573072896    8.08285105760761    1.58912349221952
C         2.87454168176476   11.07836942150430   -0.28977311981417
H         3.62067139852777   10.69118031304437    0.40017962723965
H         3.23669134149149   12.02516293553340   -0.67283938001047
H         2.79238910735061   10.39007462215507   -1.13235182972782
C         1.22376816978438   13.42013759110416   -0.75418366076126
H         2.18639472722313   13.80277015432744   -0.41715975828697
H         0.54281821718257   14.26142101693972   -0.79710202458918
H         1.34836479679454   13.02524551048875   -1.76198686985911
C        -1.43473263870253   13.56922934557607    0.48482700337109
H        -1.40477092379200   13.77970313176996   -0.58107190685193
H        -1.17846279798728   14.48242451495233    1.02365551116976
H        -2.45888562274879   13.30811093349464    0.72927444368210
C        -2.10288694451541   11.77783604283427    2.60305165873607
H        -2.97293709071214   11.56826194145414    1.97907411882794
H        -2.15333191937252   12.81921039603733    2.91587112833479
H        -2.18742274084347   11.16473026089844    3.49273451911667
C         0.87957258111861    6.12741918220456    4.25896284364756
C        -0.30130303706132    6.17027033079277    4.99645374721485
H        -0.59017499137548    7.08055830153424    5.51087931192762
C        -1.13721265494398    5.06693897177333    5.08959245530617
H        -2.05017522493741    5.13202134188868    5.66579359716258
C        -0.80639777806942    3.88443655332994    4.45378345744982
H        -1.45434317698896    3.02295123153265    4.52866463030961
C         0.36632712345533    3.81014444468796    3.72281019805512
H         0.63771503723390    2.88851804313457    3.22420380794703
C         1.19673949754217    4.91622720685793    3.62753568258281
C         2.46089675316084    4.87340771473605    2.80581559857245
H         2.21299669805255    5.13865323095850    1.76916205093961
H         2.90388551119795    3.86387897564295    2.79443606713995
C         4.43438612231852    6.15499460151863    2.29931948113187
H         5.11815207519599    6.91421271792235    2.68135425934799
H         3.95127350621999    6.54678409305052    1.40223511450755
H         5.00708808420101    5.25491022885943    2.03363531203701
C         4.08800534379870    5.34314790395685    4.51499365417448
H         3.33716937252506    5.05784420345657    5.26076723271055
H         4.73684321827957    6.12162032259441    4.93021787012833
H         4.70218272246369    4.46032910251767    4.27912071363142

