43
CSD_code = IGUWOX | q = 0 | S = 0 | Stoichiometry = C16H17N4O5Re | MND = 6
C        -1.07761837401563    8.89961965351036   -9.90311185489956
C        -1.08978293357674   10.25873004221160   -9.09004233205150
H        -1.23593164602616   10.02348367050338   -8.03368392992457
H        -1.94011134218910   10.84262202605189   -9.44245225360848
C         0.21425055872257   11.05315555889790   -9.27325202295536
H        -0.02201634763890   12.12102393738515   -9.34252858768739
C         2.02837290577502    6.63544854320627  -10.52090084735685
C         3.88151257723479    8.14298338118242   -9.03363530166313
C         1.79116580846585    6.67697464721784   -7.82549016335551
C         3.20188109710252    8.81400038998611  -12.48228272157095
H         3.85040490873043    8.41772461934446  -11.70264843115923
H         3.80164044769203    9.33042263092934  -13.22844087357759
H         2.69926461915839    7.97935157822113  -12.96969227191057
C         2.19845700983088    9.75018855167597  -11.91457860442833
C         1.56171555335081   10.79676418217093  -12.59212300235221
H         1.68643140518291   11.06493357266118  -13.62053219599281
C         0.73207328084858   11.39734170588231  -11.67352332180908
C        -0.20925878027988   12.53030837863630  -11.84515221006372
H        -1.22830767787031   12.21475465162696  -11.62308380477170
H        -0.17148191160648   12.86844137959997  -12.87672617956504
H         0.04685638475725   13.37145197048634  -11.19888866983927
C         2.97179818691312    8.90662546583614   -5.83666215993181
H         2.29616279328698    8.12171428682493   -5.50046068004027
H         3.44685532010578    9.35489216979912   -4.96832451270365
H         3.73012734523659    8.44565020089114   -6.46720509592943
C         2.22082313312215    9.94611385936155   -6.58456110664174
C         1.96044164252550   11.25309538999490   -6.15454971095989
H         2.26890311900386   11.69830883729183   -5.23154680369044
C         1.22883749620087   11.84835596173658   -7.15638771334446
C         0.67357968935784   13.22333218920293   -7.22818765510424
H         1.05245883785874   13.75948671102563   -8.09891918728303
H         0.97024176117458   13.76902792698337   -6.33680932725373
H        -0.41575901981108   13.20902452569091   -7.27356984817034
N         1.77874147334855    9.71654332740385  -10.65446826301864
N         0.90138967879989   10.72940273689507  -10.50853285787309
N         1.67725064414330    9.75840807719693   -7.78349397347120
N         1.08508223208973   10.91718809261665   -8.13101940605160
O        -0.21071626736761    8.06472642650098   -9.55003726484589
O        -1.91290053680433    8.77743480005986  -10.77771419825878
O         2.00534180765044    5.79398352152516  -11.29126665174238
O         5.03137444790771    8.22120933203379   -8.97032401794212
O         1.62442728496452    5.86201353655086   -7.03941327057460
Re        1.95492138664630    8.05563755319058   -9.18727671462668

