45
CSD_code = IGUWUC | q = 0 | S = 0 | Stoichiometry = C18H14F10N2Pd | MND = 4
Pd        0.52820401686963    1.31000562351806    9.90425176370293
F        -1.09479909425494    1.50834732391499    7.23321798126823
F         2.65937238457701   -0.56315895939039    9.04300438110527
F         1.40662442549699   -1.51421736297134    4.55457677287091
C         0.76618896516408    0.44889472734373    8.14589819227596
F        -0.69725230133143    0.19579554079095    4.80727320106748
C         0.12157873790497   -0.00806349273261    5.84792611254406
C        -0.07158526229001    0.63958726494243    7.06100449082875
F         3.11459508276931   -1.91885775780365    6.64062934253612
C         1.82985539923952   -0.42340933731012    7.97627593975297
C         2.06841010735373   -1.09399285130381    6.78561995635147
C         1.19835349453229   -0.88284032916721    5.71757734008918
F         0.21700427741504   -1.73624146024590   10.23320822604996
F        -2.41560307125696    2.10310953065503   10.03111731166901
F        -4.50830579851533   -2.13967761234558   10.43706781854940
F        -4.72334074945934    0.57488568895569   10.23611178297273
F        -2.05243897754390   -3.32288458120816   10.44908326550688
C        -2.35420585911495    0.74759398377184   10.10203852986045
C        -1.02105885686614   -1.19101031120804   10.21572698332593
C        -3.40496937794777   -1.38863903145073   10.32314282660345
C        -2.14905526767402   -1.99189906292514   10.32865676499936
C        -1.08619311468879    0.18910184118387   10.09658654563876
C        -3.51449542828166   -0.00487107015677   10.21470119282034
N         0.25704535040521    2.28805171371702   11.82277765758107
H        -0.73374086310820    2.18239021015368   12.04819758237650
H         0.79503931325298    1.85994351007823   12.57844008386620
N         2.29366264611324    2.39291280574152    9.70056645334930
H         2.90906162977543    2.04909496995784    8.96007090757191
C         2.08331414822887    3.92552988428295   11.58584918579155
H         2.28817081200035    4.99861020297231   11.57809253752692
H         2.56437359215770    3.52442430827087   12.48619297914886
C         2.79860710794607    3.30919398311004   10.41431373845494
C         0.56062101125246    3.72437922477603   11.70925014893344
C         4.16908623007071    3.86311526194886   10.16692711834116
H         4.74328563352533    3.21828520111217    9.50491955144361
H         4.71248743224505    3.98979693772470   11.10074012371443
H         4.08134017377174    4.84445936395941    9.70010984708593
C         0.08984856149045    4.45313843647896   12.97706696353690
H        -0.98016301392606    4.31391178630431   13.11545564359787
H         0.28075901292352    5.52014633334632   12.90254983282111
H         0.60319243416697    4.07566988294064   13.86033358129236
C        -0.18499815001189    4.28011404541219   10.48966658368005
H        -0.02504054288923    3.64328886071307    9.60592854919541
H         0.14795502945231    5.29051731253970   10.26689475520384
H        -1.25399128095557    4.30796745958007   10.68765945308680

