45
CSD_code = IGUWOW | q = 0 | S = 0 | Stoichiometry = C18H14F10N2Pd | MND = 4
Pd        0.63310425473012   -0.85777123122143   -2.59362033071209
C         2.45665652053088   -0.10586530044185   -2.70674873326160
F         4.37770454226660    1.99574613634396   -0.39758737731626
F         1.87979141056096    0.76175426067381   -0.63022896869790
F         3.02103188557868   -0.86612132766957   -4.84588290302548
F         6.16482021103513    1.74612053061278   -2.44706096870914
F         5.50075398359412    0.33514103222711   -4.68085029955343
C         2.82883795332190    0.64184664768025   -1.59910782197292
C         4.62926210292250    0.42113554361526   -3.66515536020346
C         4.96828116307907    1.14709919921020   -2.52699584719423
C         4.05805954751754    1.27021053686193   -1.47903138150540
C         3.38263788955725   -0.18952777234832   -3.73312727138112
F         0.67150382573703   -1.71130351841100    0.07222623528114
F         2.13412743423181   -3.48048616531673   -3.99028171021075
F         1.66874165750540   -3.93550379479363    1.43020288428322
F         2.90524442648886   -5.90893354264248    0.00203281213654
F         3.13306461149148   -5.70072147112523   -2.70497848847286
C         1.44087146471669   -2.54875393275653   -1.95728078342889
C         1.33140417912613   -2.70759261006218   -0.58251580246872
C         2.05626952793273   -3.58096692886211   -2.64553294582223
C         2.55460646723887   -4.71168594084146   -2.00832393769349
C         2.43542412684469   -4.82218283572460   -0.62640006938278
C         1.80936051285174   -3.81314071117183    0.10241488270913
N        -0.15498741159184    1.00875693742576   -3.06523980007688
H        -0.38352542051228    1.61312845855501   -2.27147864679841
N        -1.26617164353373   -1.67842935757912   -2.32861889963261
H        -1.73097945859113   -1.49664865280094   -1.43559296502784
C        -1.83794834189256   -2.50729769123683   -3.09900119753164
C        -0.24825443352807    1.53420343445978   -4.21514116202920
C        -3.12388970523766   -3.19583876546551   -2.77003932291114
H        -3.60049259471824   -2.76287823672481   -1.89293333721516
H        -2.92354780838463   -4.24794677511789   -2.56933232736746
H        -3.80969132064758   -3.14933227443964   -3.61316426918166
C        -1.20866142748791   -2.83319594978729   -4.41284282956882
H        -0.18823398911352   -2.42861456595213   -4.45278841290301
H        -1.79975277915046   -2.40539739498900   -5.22202855470180
H        -1.17856096808216   -3.91060815568296   -4.56112010790875
C        -0.67417120514339    2.94800709750854   -4.45045424766384
H        -1.05238488797703    3.41190878587471   -3.54182912342152
H        -1.43889072641823    2.99286263768977   -5.22279859039100
H         0.18007600250251    3.52505694693184   -4.80297838298923
C         0.08403494768533    0.71242620276392   -5.41580967762254
H         0.56641369966869   -0.22363902587460   -5.10600608779128
H         0.74771155537730    1.26135868719994   -6.08047309219594
H        -0.82575178208396    0.48532085342679   -5.97079477847941

