43
CSD_code = IGUWIR | q = 0 | S = 0 | Stoichiometry = C16H17MnN4O5 | MND = 6
C         8.46788501169854    1.29159687601428    9.65163991320248
C         8.49493646171386   -0.23774567657989    9.24586057733287
H         9.21967392099438   -0.72869752839783    9.89650254074140
H         8.86484987452784   -0.29410712424176    8.21943203172315
C         7.14041507669908   -0.95545119240879    9.33550880980844
H         7.32706619189404   -2.03599114793722    9.39282542360890
C         5.45243096523403    3.22310826783823    7.98694164333423
C         3.65233466053875    1.89269233971977    9.19555019301017
C         5.40390272242199    3.31236862990521   10.36965110723368
C         4.25614952619220    1.16600118862708    5.95923480879257
H         3.51584134951438    1.58669026869945    6.63734916084948
H         3.74950046290680    0.68519061962666    5.12622794163079
H         4.86100010949623    1.98382004052419    5.56939615471163
C         5.11717759687485    0.17567848634364    6.65484453126676
C         5.53072530131818   -1.05872808966723    6.13793448780390
H         5.28865231719947   -1.46665888172094    5.17850876585265
C         6.31239003688739   -1.63771727362701    7.11037887285926
C         7.01870765214275   -2.94384164045587    7.09653995685656
H         8.09285311789251   -2.81615426445958    7.22974604779335
H         6.84724663390724   -3.42589039815299    6.13812226340035
H         6.64759866604247   -3.60497332517601    7.88078897290932
C         4.22194951466142    1.41001810560565   12.52342737139506
H         4.77389343766662    2.27007999072304   12.90122621363071
H         3.68369463806209    0.95951608425651   13.35400481406909
H         3.51021987075661    1.76112772281173   11.77828446105070
C         5.15989905299224    0.41592854887418   11.94184117697885
C         5.70669105536453   -0.68576659390496   12.61157775230302
H         5.53842162466992   -0.96528150634194   13.63084625249809
C         6.50874652181193   -1.32841055251496   11.69770520413521
C         7.33897462720172   -2.54716614275048   11.86521605658402
H         7.01104236297904   -3.34927719915832   11.20234020997396
H         7.24984110530579   -2.89582419450482   12.89018936601519
H         8.38886336315787   -2.33690152126627   11.66416223718668
N         5.62066942587210    0.33908506588551    7.87503563236852
N         6.33643056750892   -0.76783777720756    8.15054848260110
N         5.60547209936748    0.44325676025879   10.68923541120178
N         6.41548333925724   -0.62455818736044   10.54360650929815
O         7.44426765616939    1.93450359604588    9.31745295581327
O         9.45620506887125    1.71777950727144   10.21448591393925
O         5.47478781551431    4.12027327283699    7.27182900792937
O         2.49475507028816    1.91576559023863    9.17878192760180
O         5.40171836749072    4.25901108014833   11.01530367892985
Mn        5.42333575893223    1.94358817557642    9.22631515977540

