69
CSD_code = IGUZER | q = 0 | S = 0 | Stoichiometry = C33H29N3NiO3 | MND = 4
Ni        2.73465677831044    0.38950333169343   19.39242720287081
O         0.45411530701682   -1.96861091319503   17.28807178194707
N         1.33711019920398    1.34733245684415   18.37482156477794
C         1.05466300848629   -1.08097114049774   17.86892999976401
O         3.59541143997677    1.98497477697668   19.85755963260540
N         1.89757183710018   -1.20756393350879   18.92445989005990
C         0.94256892437809    0.35708851156203   17.35643092510670
H        -0.10083682835615    0.51997470745876   17.04979926282483
N         4.08651560625461   -0.46528349006986   20.29810432448568
O         5.43561422868950    2.76217080121878   20.82972025983644
C         1.88110115068769    0.59960870823264   16.15354176912918
H         2.57767027890138   -0.22987073618658   16.02942386199136
H         1.29965454619291    0.68009695653458   15.23628706659832
C         2.60869854187139    1.91158720532699   16.48225461989391
H         3.61284788369155    1.71854443097962   16.86458902426683
H         2.68979006248892    2.56973056141882   15.61958079165011
C         1.75950493826608    2.51673106252021   17.59028072372386
H         0.87315033035622    3.01372058781787   17.17218170899177
H         2.31287206928897    3.21637099117148   18.21616428310144
C         0.23600119561152    1.70456522199453   19.28937764931773
H        -0.68333502787095    1.88060232051517   18.71299212396249
H         0.52271465845678    2.63267409882131   19.79269981753510
C         0.02455195739125    0.62288760243966   20.31692054714235
C        -1.00149729000590   -0.30344876703412   20.20162232563911
H        -1.70836687293818   -0.22720815975709   19.38777552242136
C        -1.12008911585902   -1.33299694110706   21.12082043842625
H        -1.92109733814599   -2.04978443108591   21.02144305480918
C        -0.20983221065096   -1.45070273151916   22.15603797721861
H        -0.29631035141251   -2.26344619011090   22.86130386067770
C         0.81038472268360   -0.52278257057904   22.28827671780849
H         1.50864547689197   -0.60205986552517   23.10848394825016
C         0.93080087832292    0.51463324358875   21.37653165814296
H         1.68100517151516    1.28909006023044   21.52844637254264
C         4.74824910806777    1.87212860468914   20.38605356244737
C         5.26260579297321    0.38594643726104   20.39264289702143
H         5.84398821912484    0.19104798868106   21.29999710085814
C         6.13090674378486    0.25641623199695   19.17256889900151
C         5.56333326391442   -0.03480647317485   17.93616600216393
H         4.48717760908402   -0.22287436760208   17.86455081720730
C         6.35038064447414   -0.10080088672494   16.80147905309072
H         5.90029997368730   -0.32860830841420   15.84575676460392
C         7.71390637088964    0.12459237365106   16.89117843872440
H         8.32998343335979    0.07195467794608   16.00595414955309
C         8.28306831301283    0.42068928694605   18.11886900942151
H         9.34538863203009    0.60090979880851   18.19138064275766
C         7.49805766683990    0.48837240289820   19.25523280991466
H         7.93932637848268    0.72861057132242   20.21065056146165
C         4.14688186042229   -1.69067012645955   20.69274503241004
C         5.41054407310704   -2.20464012598291   21.28777898241262
C         6.37925403768403   -2.74850441516550   20.45344413715808
H         6.19348527219640   -2.81535976325210   19.39179921408998
C         7.57528176251154   -3.19710306171070   20.98510441555589
H         8.32562159002143   -3.61621232336167   20.33197030716215
C         7.81016682217836   -3.10534885815416   22.34646779559379
H         8.74524461872809   -3.45340387998354   22.75869427579880
C         6.84518531938809   -2.56475002930203   23.18014003259517
H         7.02524550424190   -2.49117099015307   24.24222240795115
C         5.64800215482760   -2.11224060028046   22.65480863596056
H         4.89442956623055   -1.68391099511040   23.30008753189757
C         3.04185752478521   -2.61161432201089   20.55247987067154
C         1.95386339796402   -2.36409535444902   19.67112853945379
C         0.93242795039357   -3.32849300562286   19.62655052303344
H         0.09465423164582   -3.16650727953090   18.97097400144919
C         0.97468956044171   -4.46852817559283   20.39197219918987
H         0.16103490699821   -5.17610234253641   20.33239844579567
C         2.05142032705485   -4.71641233387047   21.23628871718258
H         2.08801542268656   -5.61583202636692   21.83144119372033
C         3.06828450843514   -3.79664263563280   21.30302815662915
H         3.90538128154426   -3.97479346088777   21.96133416853048

