57
CSD_code = IHAHUV | q = 0 | S = 0 | Stoichiometry = C20H29Cl2IrN3OP | MND = 8
Ir        3.41805821330609   10.01345609428073    1.00468376877214
Cl        4.74032783087421    8.08100350661409    0.49508823087864
Cl        5.10895368892597   11.65158591709178    1.13393931080448
P         4.00375625581379   10.07489705075368   -1.17305188214418
N         2.33935518825983   10.69291959561600   -3.04667328466853
N         3.27968932129282   11.21944285730411   -2.21885878110822
N         3.33806542487471    8.87786453922592   -2.16077286889080
H         3.30577206671927    7.91541243475825   -1.86433334394291
C         2.37473605470475    9.40969820572558   -3.01868546942883
C         1.49228792677540    8.58385517001520   -3.81974693820967
C         0.47126680239151    9.19646047912400   -4.55171527107854
H         0.38395744375625   10.27003717196726   -4.50605015523364
C        -0.39584878558477    8.43825066651423   -5.31089175429435
H        -1.18094910693005    8.92159700994434   -5.87322009656069
C        -0.26319026098316    7.05822985930765   -5.35280059473771
H        -0.94312305437388    6.46525613487095   -5.94587757260536
C         0.74729174830775    6.44305070646146   -4.63307990067264
H         0.85741195281361    5.36914480997266   -4.66662174082566
C         1.62160460847134    7.19544962127182   -3.87072357203819
H         2.41147527972159    6.69684503932270   -3.32829853916187
C         3.21333840229019   12.62657975876538   -1.92009544690091
H         3.48641810851544   13.20913356020051   -2.80227337499506
H         3.91674423321706   12.82401967099775   -1.11052085456635
H         2.20934970695316   12.92280874015317   -1.60874374186519
C         2.37771982099791   10.58529477045075    2.90295428261104
C         1.71611278407373   11.19587431859813    1.76254579626623
C         1.12204689066954   10.15738805655698    0.98197135115507
C         1.55741542228574    8.91968394610435    1.52916167353524
C         2.28502707749295    9.19097274962862    2.75654632024904
C         2.93838731744523   11.36701725080729    4.04523818991356
H         2.13972997596006   11.91794310943114    4.54396769327999
H         3.67525585944528   12.08529022203544    3.68737215598489
H         3.41940659958027   10.71521894955576    4.76946368290604
C         1.46278224777624   12.66281978137116    1.64535647114816
H         0.78730227681499   12.98577063210285    2.43929964372738
H         1.01152486970202   12.90956633375360    0.68809426440633
H         2.39393694104502   13.21697447070285    1.74863064348194
C         0.18971299060128   10.34355496921640   -0.17098875612527
H         0.17805230598041    9.46882964335554   -0.81776975829811
H         0.46799134583130   11.20401489580816   -0.77549745685233
H        -0.82392299624349   10.50481877163090    0.20070693587388
C         1.15055443142409    7.54950774729793    1.09772374885495
H         0.38474706623054    7.15902864372690    1.76993192853303
H         2.00516518668480    6.87561959678231    1.13071477633190
H         0.75012951947647    7.55472212667750    0.08618587170252
C         2.72805820539135    8.12669222798674    3.70594417757662
H         3.32435177023730    8.54400108721580    4.51291120536931
H         3.32740757535735    7.37860557993094    3.18869146943890
H         1.85784287777383    7.62691918776481    4.13454113055051
O         5.55579056388258   10.15172256164250   -1.48349881077898
C         6.10368751766218   10.27955396674662   -2.79846263335367
H         5.31783757803698   10.13779313199726   -3.54961842370897
H         6.84276523652929    9.47987557614195   -2.90009077017034
C         6.76022788178896   11.64041513977744   -2.95022052499453
H         7.27176424981406   11.69891572432952   -3.90724456314205
H         7.47772128969330   11.78854124369062   -2.14805443293630
H         6.01371827043718   12.42755498707127   -2.89288340910893

