110
CSD_code = IHAJOQ | q = 0 | S = 0 | Stoichiometry = C53H50Cl2NP3Ru | MND = 6
Ru       -0.51131724409633    0.45414892887322    8.06167045775347
Cl       -1.53083131925252   -1.68765712601903    7.64717469921314
P        -0.32540668549168    1.27671587928505    5.91175964841375
N        -2.56234689479773    1.46456837235980    7.79582354274733
C        -2.34963543314038    2.78196625932346    7.17404288252734
H        -1.79593655290960    3.39562399710205    7.88861043724986
H        -3.31828380355718    3.26638086929848    6.98519575049438
Cl        0.40565306800897    2.64142544231181    8.52243361398424
P         1.58207867681977   -0.48607155460239    8.29555848099720
C        -1.54116298937294    2.69837687667563    5.87762678102014
H        -0.99599876844738    3.63331645865238    5.73448119034332
H        -2.19089872833118    2.55340196589874    5.00963578676350
P        -1.23569886502292    0.03745078742915   10.21933522361305
C        -0.84492085722878    0.48528817005781    4.33801409373989
C        -1.45062014457982   -0.76422268103854    4.31107147821239
H        -1.59685624963606   -1.31752394896820    5.22854257707391
C        -1.88024515043466   -1.30439805428218    3.10975809390617
H        -2.34748583512199   -2.27817265569594    3.10061930055440
C        -1.71410323812868   -0.60109084406983    1.93038467301475
H        -2.04661311194862   -1.02374124384855    0.99344026547793
C        -1.12298392619417    0.65330251688604    1.95292481460763
H        -0.99726773086996    1.20959223887142    1.03499314401710
C        -0.69394880241179    1.19551487378340    3.14826199405477
H        -0.23192419300388    2.17406912977940    3.16430536805826
C         1.24559181268255    2.01628051620287    5.34396521408651
C         1.66981042417947    3.28853133991511    5.71285507983749
H         1.05052443298827    3.91667091518282    6.33441969296012
C         2.91090922832977    3.75294148482213    5.31379376165319
H         3.22713661955408    4.74282618056413    5.60942805681629
C         3.74649113297620    2.95676065482977    4.54997861829615
H         4.71743217036374    3.32088998504959    4.24661405122981
C         3.33133456514048    1.68839501102525    4.17720653351071
H         3.97499546523137    1.05590924695477    3.58268884592869
C         2.09108205619225    1.22266378111075    4.56941410119364
H         1.77164314047944    0.23475054807705    4.26998473125099
C         2.38339211738299   -1.21931802448075    6.82733248419579
C         1.57121380629449   -1.74327064706498    5.83066143943883
H         0.49887435253968   -1.63868757462821    5.91839699367465
C         2.12665353300447   -2.39556010556809    4.74374699875299
H         1.48548159799458   -2.79555869654471    3.97109198212940
C         3.50130423296595   -2.52695413155102    4.64911072189298
H         3.94114074390992   -3.02638840027416    3.79791225849565
C         4.31501900226596   -2.02927941161172    5.65555487300237
H         5.38722121525127   -2.14757102812886    5.58978936655836
C         3.76222724430036   -1.39140456658454    6.74984801902309
H         4.39860928385944   -1.02723834546609    7.54424424422893
C         2.76814959411377    0.75158176538644    8.89319783605846
C         3.57911549101009    1.47937071021254    8.03086245422848
H         3.58427436300977    1.25254367511956    6.97420620699206
C         4.36116347683895    2.50877912099168    8.52353122509380
H         4.98573767669687    3.07328171319685    7.84606366716120
C         4.33090489196158    2.82746051096512    9.87040054465658
H         4.93779053029120    3.63736553063526   10.24857110495301
C         3.50269980936106    2.12298193935281   10.73010690838835
H         3.45578205286180    2.38569145563680   11.77748041205147
C         2.71921356095882    1.09598059274844   10.24235846608025
H         2.03922661166556    0.56301828486369   10.89700652523304
C         1.93157042168297   -1.94489920112251    9.35387909934013
C         3.02035222830322   -2.02403476652704   10.21525689865315
H         3.66452513639328   -1.16964742798932   10.36553618945711
C         3.28984044323028   -3.20369439330056   10.88642681846286
H         4.13522079533846   -3.25199434740342   11.55846762272018
C         2.49324854007224   -4.31885066234271   10.69314654777522
H         2.71197308290469   -5.23804093426736   11.21711431106002
C         1.42216793864064   -4.25296142287793    9.81818930790263
H         0.80155247026541   -5.12109804847125    9.65215632056080
C         1.14492372048589   -3.07575150726325    9.15106774315609
H         0.31013308464188   -3.03074494074658    8.46759701727497
C        -0.18094948362811    2.16449303158177   11.76764090891356
H         0.35178064692017    2.47019977104285   10.88056595187836
C        -0.05125169148357    2.89841089558074   12.93611082009570
H         0.59009593689609    3.76755752200420   12.94868001894267
C        -0.73693454251039    2.52263394311246   14.07629407313377
H        -0.63381616965797    3.09355274834725   14.98770878256255
C        -1.56009111995587    1.40649258209601   14.04790129689964
H        -2.09831268463147    1.10747824419675   14.93609725034602
C        -1.69150191819310    0.67238276321952   12.88655246229371
H        -2.32404547176555   -0.20598555362593   12.87497693730833
C        -1.00009793666738    1.04519816117611   11.73371235367287
C        -1.15448184911237   -1.60936100026472   10.99609147140564
C        -0.10172407273317   -1.84239282795540   11.87998524472856
H         0.60382993173720   -1.04831884160734   12.08856661055451
C         0.03807251817070   -3.06776556545697   12.49891325608475
H         0.85286599532747   -3.23222892662676   13.18865739363736
C        -0.86462903614861   -4.08416255032035   12.23028653583605
H        -0.75753233670150   -5.04422896142717   12.71365304215192
C        -1.89891023304262   -3.86779630071721   11.33719378234810
H        -2.59881994253944   -4.66109952633571   11.11761762665530
C        -2.04637842955020   -2.63795880571575   10.71963545341603
H        -2.84829806753593   -2.49430083470020   10.01210631348065
C        -3.04472223573669    0.36729405390673    9.97227978948131
H        -3.49833810769215   -0.47259258390284    9.44307580044824
H        -3.55230024794914    0.50260060448649   10.93115392012140
C        -3.11604560211821    1.64998463098302    9.14608375315728
H        -4.14772157113305    2.02469868682297    9.08758700313530
H        -2.50828298396932    2.41109341421688    9.65354285723488
C        -3.47357894420099    0.66344377870572    6.94206066862334
H        -2.99915338363126    0.57486533686400    5.96020123691091
H        -3.53797073223206   -0.34527434092644    7.35581527653559
C        -4.86508384549280    1.21607004255893    6.77394823423261
C        -5.87439136967342    0.88836132772060    7.67427076403987
H        -5.66633191771740    0.21382382478632    8.49262790327634
C        -7.15183967212168    1.39836537629105    7.52515935026667
H        -7.92102382707622    1.13407363622374    8.23602677927513
C        -7.44585329301533    2.23854874494875    6.46518456466312
H        -8.44213922969968    2.63810769203218    6.34856967143620
C        -6.45909419734943    2.54887481287700    5.54571169864382
H        -6.68452749023459    3.18697429206823    4.70378755858887
C        -5.18190875816942    2.03877656349247    5.69830076936457
H        -4.42866195343110    2.26991910148237    4.95813922089578

