75
CSD_code = IHALOT | q = 1 | S = 0 | Stoichiometry = C28H40F2MnP4(1+) | MND = 6
Mn       14.13117620015691   13.33189453400800    5.26437595373543
P        15.53586697615774   12.70153112430794    6.91585075065040
P        15.47484577237007   12.13306272654257    3.89968811459769
P        12.83234921246230   14.59567084527556    6.61379518604697
P        12.67773878788306   13.89160885194142    3.62952816622790
C        16.60363367785204   11.35139365685938    6.25913795902761
H        17.47028117396386   11.21239483868199    6.91281339207275
H        16.00459407710638   10.43354436910649    6.26332240438708
C        17.00525352644566   11.71695795995847    4.83757580154014
H        17.53824337321903   10.90407610895873    4.33478824190720
H        17.63925143515702   12.61110615119975    4.83572291549423
C        14.93966623038146   11.95955907407528    8.47125144611304
H        15.77159587565794   11.46569866590713    8.97495086539724
H        14.15479360240950   11.23684857334347    8.24746281454363
H        14.53950546946714   12.74203202877908    9.11677374048987
C        16.78509655277798   13.87887877967526    7.53652614803954
H        16.28325935270713   14.71413667438441    8.02356142885151
H        17.36555450820055   14.26507162875873    6.69896394611894
H        17.43742901362500   13.37345010888797    8.24950339736121
C        14.94050524897443   10.48335662892955    3.32923744820472
H        14.06857999009627   10.58553598127806    2.68453032803233
H        14.66108974358490    9.87477838772248    4.18887912542366
H        15.75371852173842   10.01027376455306    2.77768347663738
C        16.17719729384368   12.83317331207839    2.36979987897243
H        16.99648330117990   12.19904282310941    2.02880922955762
H        16.54357867187924   13.83984685284717    2.57225521164566
H        15.40572684181807   12.87284836514993    1.60018850972579
C        11.67912752943318   15.55745379525883    5.54629960480858
H        10.85297260077430   15.94633950307490    6.14950171193886
H        12.24569741750590   16.40092851504298    5.13518859353478
C        11.19785509707438   14.64350648698536    4.42878248365949
H        10.60367313198897   15.17834816732877    3.68143070593505
H        10.59834593980337   13.82225431666969    4.83800124666180
C        11.66948334009999   13.78508743894149    7.76412733481744
H        12.22855524104128   13.23178641298625    8.51753956794883
H        11.04636562971909   13.08032878279698    7.21418422834082
H        11.05066134070565   14.54257542125026    8.24638525652103
C        13.52147431204516   15.91380675948756    7.66809747831774
H        12.71165399648796   16.56036345933112    8.00834922579599
H        14.24404485952678   16.49213026385016    7.09187515913929
H        14.01568627469538   15.46780698876946    8.53176369268723
C        13.13140929815055   15.18389006874592    2.42282086404161
H        12.27599124780730   15.39728825533832    1.78088957484872
H        13.96818262118178   14.83556458324536    1.81850380950797
H        13.44009162691730   16.08338732086176    2.95499410387208
C        11.90275931632851   12.64663816127072    2.54561298122557
H        11.03479792124321   13.08908530502358    2.05509851219372
H        11.59782599595651   11.78804018599568    3.14412081717819
H        12.62045350251413   12.32599990980513    1.78985068774310
C        13.06561552411526   11.78740233754808    5.62851684534100
C        12.38128238065827   10.80231141022099    5.85696831436862
C        11.59030797747976    9.66203597774273    6.12027262706051
C        10.25097375170557    9.62470437743250    5.71811242917030
H         9.82463659570353   10.47488405861253    5.20452557069745
C         9.47591345074980    8.51260552424168    5.97160932970624
H         8.44224995127635    8.46644762820871    5.66768164449069
C        10.04658221652665    7.43628357770504    6.63214704481825
C        11.36997112666693    7.44544636117740    7.04324301710275
H        11.77678450902117    6.58781472831255    7.55503377624424
C        12.13944516267295    8.56026764829225    6.78465150811036
H        13.17395376239997    8.58719031878298    7.09664173124393
F         9.29486649973485    6.35228132205419    6.88121194594558
C        15.19603226052571   14.87745245259933    4.90065018384184
C        15.87968287991567   15.86347171257060    4.67382520179329
C        16.67175664558560   17.00369241432641    4.41228243647446
C        16.72849592259480   17.54294605214534    3.12295456620853
H        16.16199823842760   17.08152755775575    2.32662555136043
C        17.50268334983210   18.65475017624432    2.86435082564727
H        17.55854961804926   19.08276247526786    1.87609556577143
C        18.21987325884569   19.22709027458889    3.90257361363843
C        18.18163931663573   18.71515209735206    5.18954128707890
H        18.75397404170303   19.18927267913101    5.97095763788427
C        17.40670244722534   17.60225657935911    5.44094789002173
H        17.36322424062058   17.18798633227545    6.43817548005050
F        18.97438219924975   20.30998100774595    3.65421045447948

