41
CSD_code = IHAVUK | q = 0 | S = 0 | Stoichiometry = C14H14N4O6PtS2 | MND = 4
C         7.60366325972408   -1.35066000527538   12.96884705283681
C         7.73944122367638   -0.41850335161663   13.98114877841692
C         7.36771771483031   -0.72807170829268   15.28053749660777
H         7.47733313144735    0.00874489696439   16.06081540984336
C         6.86188901169118   -1.99417524111475   15.53364027091932
H         6.56649153904895   -2.26090962766809   16.53742043567722
C         6.72961807211893   -2.92422691355964   14.51215626181768
H         6.33166714128472   -3.90396671910844   14.72973420128684
C         7.10455715697972   -2.60989902746964   13.21012989344239
H         7.00855050602171   -3.32299473714236   12.40716526760978
C         8.27905227607438    0.88283106019858   13.50605114769665
C        11.28436403500442   -0.98957852646164    9.19753194907442
C        10.19783593155456   -0.93769199327831    8.33866855301819
C        10.00579596468049   -1.93941989210757    7.40292936300992
H         9.15337207334795   -1.89431565809035    6.74299715381192
C        10.91843609854316   -2.98375896164907    7.35397056562874
H        10.78188152693601   -3.77979859782584    6.63673907374788
C        12.00167365337541   -3.02210348922149    8.21885059544184
H        12.69857084101421   -3.84559827139240    8.16924845074975
C        12.20094454144538   -2.01184449229359    9.15435865532304
H        13.03870877348614   -2.03018446801208    9.83330946918278
C         9.27920790853175    0.23384773022359    8.55530619290831
N         8.55423387330088    0.87802158750900   12.20495380745010
N         9.67532379018858    0.92287175241792    9.64205171913022
N        10.28352404730879    3.59417114921306    9.68465570828256
H        11.14440987745697    3.04371187726832    9.50428280167320
H        10.52690511206316    4.55888316326103    9.89684880633912
H         9.72773174085874    3.56861149262368    8.82888680761649
N         9.34562838380616    3.69997126660144   12.60566334050018
H        10.29240144608723    3.99007821549310   12.84373066729949
H         8.97939639545855    3.11315884861467   13.40488372136861
H         8.75315920579278    4.52138312179115   12.50493532266180
O         8.40443170282738    1.85286350524904   14.26457256080720
O         7.19197605983472   -0.43730976415790   10.50583577871541
O         9.40103756256635   -1.32375424859379   11.06564509448203
O         8.36955829776330    0.52462798004418    7.80831622145532
O        12.07427911845505    1.48887893806436    9.56567825457520
O        11.30818525849427    0.44069841922159   11.58931510035119
S         8.23150806512432   -0.59418820985575   11.47185259601703
S        11.17309206444611    0.50154603221600   10.16128435541573
Pt        9.37904561734952    2.30615286721195   11.05115109780757

