35
CSD_code = IHAXAQ | q = 0 | S = 0 | Stoichiometry = C12H12N6NiS4 | MND = 4
Ni        0.00021537302005   -0.00033057391942    0.00004996052307
S         0.68650332157006    0.40594981460975    2.09902335321545
S         3.79421398441670    1.90590460992576   -2.60572774254678
N         1.62777015131130    0.87717550769388   -2.14508559626435
N         1.54434022067574    0.79383836131987   -0.80278863570929
N        -0.68684782952190   -0.45535643804084    4.18650999078728
C        -0.65808839648578   -0.36737197431152    2.84555484852548
C         2.59661766041401    1.27892070086565   -0.19427264687256
C         3.71110916959398    1.82775112121458   -0.87172612526732
C         4.84838135703188    2.35654215513344   -0.29421718432019
C         5.77480001127610    2.81830270138154   -1.23640031653900
C         5.34432082751492    2.64046408871679   -2.51916681522476
H         2.63154213212325    1.26737593697438    0.88583762055960
H         0.00479788236698    0.03377893526815    4.72490737983787
H        -1.51185541506351   -0.81792324832458    4.63052852464764
H         4.99328256723696    2.40226364817414    0.77029007479913
H         6.71949339978378    3.26283790708104   -0.97685437164150
H         5.86038345030601    2.90608366660429   -3.42093472671549
N        -1.62782948357498   -0.87707998095850    2.14508636993703
N        -1.54436835872614   -0.79374481896386    0.80279372267259
S        -0.68660861336601   -0.40582202189427   -2.09895069289147
C         0.65805384809730    0.36737242121906   -2.84552973483645
N         0.68677837440449    0.45537780311730   -4.18648189238360
H        -0.00489020577520   -0.03374658275061   -4.72487494055636
H         1.51173132728933    0.81808781177675   -4.63054143870227
C        -2.59664207203093   -1.27881098798604    0.19425405226315
C        -3.71111698112920   -1.82769420456030    0.87170113101745
S        -3.79419141210680   -1.90592179110971    2.60570355701689
C        -5.34429462458633   -2.64048561311285    2.51914883628911
C        -5.77476023555688   -2.81835506071161    1.23638244135667
C        -4.84834885476831   -2.35658261365950    0.29419636335545
H        -4.99325010009487   -2.40231287327316   -0.77031002343173
H        -6.71942466362709   -3.26295350932678    0.97683812133101
H        -5.86033768639668   -2.90614051323986    3.42091806077206
H        -2.63148012562227   -1.26739438493250   -0.88586152500343

