53
CSD_code = IHEBAZ | q = 0 | S = 0 | Stoichiometry = C28H20N2O2Pd | MND = 4
Pd        5.77050912533224    4.57076400514272    1.36527945670400
O         7.34573548538202    4.34473991067733    0.10853686723375
O         6.96223701495732    5.99425089417930    2.44483860441708
N         4.13746843743937    4.65174311257115    2.52902738042328
N         4.13531093784606    0.91241529997780    0.20513427035445
C         3.75770913792162    5.71531900954655    3.27417114619745
C         4.27095872736545    6.99503909471594    2.97890554352216
H         4.93631280343591    7.09483886448906    2.12479731659559
C         3.91039431225123    8.07710443227385    3.73566930135788
H         4.30405573446812    9.05566247618115    3.50347837685709
C         3.02003086643180    7.93315988139202    4.80927551452540
H         2.75852066277508    8.79583133022120    5.40359732145216
C         2.46515642535083    6.71167744248164    5.08430448950246
H         1.75002300967124    6.59778594168534    5.88635733321888
C         2.80025580732680    5.58274543229526    4.31636606198975
C         2.20580617577482    4.31257145671651    4.50816934032526
H         1.48931984596643    4.18203074727166    5.30647627729876
C         2.51594061967344    3.29003611192586    3.66425940094668
H         2.04707226308228    2.32414479233407    3.75691032316988
C         3.49242200735473    3.47826894369097    2.65602465753916
C         3.86380802957632    2.52017600753774    1.66732424299439
C         4.85100202608306    2.94761268176391    0.71843450508675
C         5.00099394060390    1.89308248512936   -0.18660080451384
C         5.63169273520206    1.37155466074473   -1.36039048100625
C         6.59317598258902    1.90092990060109   -2.21181349655521
H         6.98465518566724    2.88706978637053   -2.01662535141596
C         7.01381476537810    1.13879381541716   -3.28185305252203
H         7.76125685507515    1.52924704802889   -3.95776699168828
C         6.49222621217259   -0.13514785168850   -3.51516839677866
H         6.84664500991521   -0.70243193568331   -4.36348293763377
C         5.53370843114047   -0.67881834047822   -2.68400824714800
H         5.13187300147538   -1.66397784023432   -2.87051015994113
C         5.09268735929809    0.06902232546203   -1.59885033592623
C         4.12129234449259   -0.20247116853526   -0.56918858076814
C         3.24360212371949   -1.19032399743832   -0.16969905726549
H         3.15738262477291   -2.11663980975419   -0.71362057414344
C         2.46210892566073   -0.95772941161828    0.96903295552986
H         1.77457731594825   -1.72944002908456    1.28236886698481
C         2.52466625485123    0.21376805553075    1.71354005064460
H         1.89390371815326    0.33363736806831    2.57937271684546
C         3.40763053752461    1.21718371991537    1.31970953373993
C         8.46708391583767    4.92809442725566    0.14996441866192
C         9.43821534628830    4.53662102068929   -0.94864091207040
H         9.35373664814396    3.46961987351618   -1.14294070722215
H        10.46146612315439    4.78337992817053   -0.68378662400893
H         9.17280151081038    5.06836710922658   -1.86194176242800
C         8.89328900910570    5.88070839351813    1.07529196343330
H         9.89007657420114    6.27883284461920    0.96491085049106
C         8.13707911977480    6.33836318434934    2.16178904753611
C         8.80022905185800    7.34331350042436    3.08447606888893
H         8.10891097361539    7.62500192394632    3.87491171461151
H         9.09219443686787    8.22886258473888    2.52418851822426
H         9.69487450953619    6.90920856014235    3.52559403408321

