85
CSD_code = IHEJUB | q = 0 | S = 0 | Stoichiometry = C32H44Cl2HfN2O4 | MND = 6
Hf        4.58036089621366    3.28088180854882    4.87574027000398
Cl        6.12492574069258    4.68438259600714    3.85992456416238
Cl        3.51028469479480    5.04446079752592    5.94606009838199
O         3.44149535899054    3.23136411853391    3.35276023956552
O         5.79143107679363    2.98485845914150    6.33158844109193
O         0.87226426870952    1.28656545141525    5.81078804563540
O         6.53487264625843   -0.54721408613052    4.25596631080643
N         2.97871847296501    1.98210924398862    5.64467998504091
N         5.51728044672830    1.42758732512130    4.24924948974067
C         1.74720419793879    2.14741247944917    5.27208468126025
C         1.59623090992585    0.38082722483767    6.63422848767723
H         1.59117212131808   -0.60427972471764    6.15469767254749
H         1.09514891696559    0.30985079449650    7.59995146085871
C         3.00861842830189    0.99166775029199    6.71154470158035
H         3.78662936284493    0.24635506133562    6.50253420924328
C         3.33845987338556    1.68191047330974    8.05390706758543
H         4.25982349111179    2.24679008746107    7.88584035998264
C         3.59988823563608    0.63775606255960    9.13618262978258
H         4.42009517090917   -0.01674125894586    8.84778830259090
H         2.71624990967795    0.02888288190572    9.31827484567526
H         3.87093581311103    1.13058637681603   10.06595808904201
C         2.26838274157816    2.68639139236480    8.47794440250202
H         2.15114949538865    3.45840795426465    7.71845639063832
H         2.57944685621168    3.17440625746267    9.39817281812777
H         1.30658117116600    2.21044040034076    8.65928880345606
C         2.23913502570178    3.74910354126429    3.48045286399026
C         1.28838532130311    3.17300582079716    4.36825046659062
C        -0.03825422147728    3.65758897274881    4.39316384403714
C        -0.36821253670223    4.70827765957584    3.56233475013687
H        -1.37634093077156    5.09469187187889    3.57655620913429
C         0.57321285716802    5.30721373282085    2.73330002669196
H         0.27413216253863    6.15001544285920    2.13012968320204
C         1.87224324221562    4.85326706351472    2.67905797360279
C         2.94803221455787    5.47217974715895    1.81890832995582
H         3.89974525844905    5.33602911417428    2.35216453442619
C         3.03656979565191    4.71939849782708    0.48737158627740
H         3.85304642767105    5.11355873553434   -0.11274691966358
H         2.10717005020853    4.82635651148627   -0.06987725902683
H         3.21554437361389    3.66236742799332    0.66754780433632
C         2.74253307702330    6.96578617134102    1.58565830476282
H         2.57578015589958    7.47620177433532    2.53073949443944
H         1.89669527277995    7.15157454885770    0.92683010062112
H         3.63155237159053    7.38528629477821    1.12106473917872
C        -1.07572501357169    3.10434307670134    5.32000621981811
H        -0.72825832919936    3.13710384870984    6.35041065042810
H        -1.29967763110430    2.06766385272974    5.07652266542294
H        -1.99031491825691    3.68709257231027    5.24334287764547
C         6.25499522393343    0.59177937270794    4.91124491262895
C         5.91615967062077   -0.49651038301781    2.97671529972779
H         5.17664067497915   -1.30117621885527    2.91765608668522
H         6.68274528644947   -0.66128265153941    2.21732517519880
C         5.28214442335337    0.90745231377279    2.91004783142249
H         4.19893674030129    0.85486368361062    2.73886396530967
C         5.88800682278419    1.85542420744406    1.85456800169882
H         5.41211650865533    2.83061852458694    2.01803578224897
C         5.54748140059786    1.37018880130722    0.44785512697641
H         4.47154241831188    1.26661657697718    0.32649711010906
H         6.01109872147577    0.40805513752795    0.23716237561078
H         5.90596607382512    2.08799764675409   -0.28462512275643
C         7.39279423257320    2.03681064774143    2.03688833788424
H         7.75545216929337    2.77151224140669    1.32389424419725
H         7.93856284378512    1.10813645119075    1.87774763762001
H         7.60800207672042    2.41391251192635    3.03523491800248
C         6.54467680038990    2.06379839045352    6.86364605891026
C         6.78519733859326    0.80563999033649    6.23335414710784
C         7.57536230148726   -0.16788836166399    6.89661628201038
C         8.10413426805708    0.13635930924513    8.13165906561164
H         8.70670100320803   -0.59911759034704    8.64339574117547
C         7.89498562521366    1.37289691596599    8.73503115088272
H         8.34706078312451    1.56338079316471    9.69546783363406
C         7.12599943084733    2.33736461197564    8.13147707349538
C         6.87795739275333    3.70655689002170    8.71814245153030
H         5.84215620758404    3.98268091710156    8.48512664646382
C         7.07021349286876    3.76598055717723   10.23046756289846
H         6.72251825018289    4.72669879384078   10.60269217463661
H         8.12019955184424    3.66482689399716   10.49569782941541
H         6.50396848970493    2.97999829413769   10.72600967290571
C         7.78639019420700    4.72224420639678    8.01517330728299
H         7.61602786063983    5.71727088616951    8.41872763213034
H         7.56889310980189    4.74339129938928    6.94935144625624
H         8.83309830540021    4.45891872439910    8.15655782542107
C         7.86499284388449   -1.51749396577064    6.31544129404320
H         8.43975650368466   -1.42668940573238    5.39628781351721
H         6.94706542334837   -2.05054060334261    6.07726632609354
H         8.43795521326972   -2.10954261603320    7.02519766891316

