56
CSD_code = IHEKOW | q = 0 | S = 0 | Stoichiometry = C26H23ClN3PPdS | MND = 4
C         1.65509503547553    7.15257886615180    2.24977451182652
H         1.89515446352027    7.87430956813737    1.48649329599962
C         0.64273734457927    6.23324123338412    2.05272195301759
H         0.09110979025151    6.23803541765281    1.12346404641999
C         0.33037479531509    5.30743444095740    3.03499613527937
H        -0.46134976407599    4.59059491221342    2.87391540746773
C         1.03976898887261    5.30526189725491    4.22674217776514
H         0.80051407701525    4.58561726727411    4.99619925571069
C         2.05127563881824    6.22012003202078    4.43147287954624
H         2.60176681709151    6.21672260992913    5.36132147675338
C         2.37913209409523    7.16270168336124    3.44656436566809
C         3.45994141289730    8.07828257612929    3.74823670987774
H         3.91227636555918    7.95432807103149    4.72888282627998
C         4.11257234003553   10.11332455144298    1.05085578391744
C         8.54270764850770    9.71043060060211    5.09195122830243
C         8.44103640962519    8.45849227346428    4.48328811522589
H         7.78656788470690    8.34498756008517    3.60842303628705
C         9.13099762204019    7.37961906269663    4.99843486580620
H         9.05057045794324    6.40902416039975    4.53152964589530
C         9.91575064928172    7.54383484417804    6.13095215396185
H        10.44841738532397    6.69929733831092    6.54253790725870
C        10.00185790824783    8.78069104393798    6.74637048364205
H        10.59842992450572    8.89859944889799    7.63917857988794
C         9.31819387282577    9.86967195528945    6.23014936047022
H         9.36851788024283   10.82778086331647    6.72552553704094
C         7.22302908746365   12.39639333482611    5.37013287759069
C         5.88893799466843   12.75185700223093    5.55218038291232
H         5.10458457582117   12.15825269637792    5.06725564091706
C         5.56665423230766   13.84120030662722    6.34099850245655
H         4.53268061439747   14.11515559744862    6.48946990599119
C         6.57362599595737   14.58059293919815    6.94067940307118
H         6.32266835970371   15.42658910660768    7.56343298552711
C         7.90342449508150   14.24817763544227    6.73355075795404
H         8.68492612478054   14.84037682202210    7.18709734713251
C         8.23324921289942   13.16448684800669    5.94041822916143
H         9.26948138903725   12.92172160424450    5.74761407466617
C         8.72265835027259   11.74454468225247    3.09488858947604
C         9.99544094053742   11.24388923786855    2.85320780134017
H        10.34679574251488   10.37530098155080    3.39311467195473
C        10.81011314663573   11.86131070844864    1.91929165143082
H        11.80039887476762   11.47195789105342    1.73230045494376
C        10.35858450876940   12.96972301479249    1.22355403638656
H        10.99676468200133   13.44441529350485    0.49283531590329
C         9.08521468799132   13.46691612911365    1.45797928958242
H         8.73065818887817   14.32715985745135    0.90962986073029
C         8.26886303666238   12.85603599710823    2.38862354360482
H         7.26600561508313   13.22285328376920    2.57266579123417
Cl        5.55836188285399    9.41815137819327    5.81673106414864
N         3.96075004359708    9.03564417921126    3.03530808944007
N         3.44325316628594    9.30938915664506    1.81932590417303
N         3.58487432939872   10.46273255662791   -0.14320486231748
H         2.77129771248811    9.97528610858641   -0.47570338788802
H         4.17505551015446   10.93551640352673   -0.80443948615728
P         7.55406263514274   10.99177939532366    4.27290498812675
Pd        5.65619324459436   10.02217968384113    3.60273625465287
S         5.66717457653481   10.79052788992937    1.42463858251632

