45
CSD_code = IHEKEN | q = -1 | S = 0 | Stoichiometry = C20H15FeN6S3(1-) | MND = 6
Fe        6.03735086246020    3.50918261011581    2.18169121797277
S         1.73562079561452    3.39217289011354    3.85184909573246
S         8.07096711242368    7.15438061353613    4.16274190370545
S         8.25684146118683   -0.14103784074573    3.92267479102340
N         7.60093930252745    3.53886682163746    1.11947905849495
N         5.30260387672812    2.20588422421630    1.02820085089515
N         5.29740996295310    4.86403816707587    1.09168648416208
N         4.42279463049656    3.47633841944989    3.21924994982144
N         6.79241683261654    4.85604078300414    3.32005785909468
N         6.80995121603142    2.11354815911743    3.25052693106397
C         6.11501380132249    3.58110366559443   -0.81501772916170
C         7.52401490436792    3.55633718663244   -0.22323544355696
C         8.66384877108169    3.55261590916749   -1.01181822582516
C         9.91801562562009    3.53517094051405   -0.41961810627713
C         9.98909089570716    3.52562594385496    0.96525266655600
C         8.81636598853092    3.52806819646816    1.68632505860624
C         5.37927058450795    2.34136824643460   -0.30770630069149
C         4.81928280746350    1.40439993091339   -1.16186052159030
C         4.16710332374189    0.29502322438350   -0.64420326299029
C         4.10054509786922    0.15756821871706    0.73416730139755
C         4.67663079914863    1.12772695965249    1.52286397540733
C         5.39938810671249    4.80681763906787   -0.24822598293714
C         4.88236253242427    5.80806832102630   -1.05521220837511
C         4.23973788688398    6.89704992590011   -0.48500576878270
C         4.13238085604470    6.94526773988585    0.89680948847236
C         4.67042072195758    5.91679319349189    1.63703486202133
C         6.15437155969370    3.61733312957819   -2.34373188578163
C         3.28380483582330    3.43624746806994    3.48961011414776
C         7.33654363148986    5.82871964609047    3.68020552837587
C         7.42702690099425    1.15914094822151    3.53448202920625
H         8.59919856633675    3.56215357262555   -2.08677959563355
H        10.80936313082226    3.53041914541865   -1.02857100841623
H        10.93682750218259    3.51501859427865    1.47901185464365
H         8.82241133147125    3.52112421415979    2.76435652661542
H         4.87790979637255    1.51805274293226   -2.23118941706612
H         3.72718436937481   -0.43712215695948   -1.30434134099103
H         3.60920177043276   -0.68630196092529    1.19113482659894
H         4.64990283300691    1.06390564963582    2.59874787511913
H         4.96882966617022    5.76130762704263   -2.12766757005912
H         3.83631561756580    7.68078920332468   -1.10818505847424
H         3.64096243531643    7.76638450520011    1.39340682298852
H         4.61166508039720    5.91100672472203    2.71352633740919
H         6.65749088695364    2.73369291947344   -2.72939367980808
H         5.14469814226701    3.64561636750188   -2.74676107401058
H         6.68992318690484    4.49939157038313   -2.68696922910373

