47
CSD_code = IHESUL | q = 0 | S = 0 | Stoichiometry = C22H18Br2ClN3Ni | MND = 4
C         7.82152585589047    4.32582432618110   11.94654853009725
H         8.63122446946332    3.82719283400741   12.48690352808558
H         8.07543615514178    4.41877055376621   10.89061120964714
C         7.56089374623350    5.66929565915279   12.57200281123016
C         8.44158704638877    6.73642436809238   12.43149075421080
H         9.33299188062197    6.63574841046295   11.83346430723621
C         8.14666576912732    7.92223284043026   13.08373046161878
H         8.81393547638987    8.76639873856990   12.99770905520961
C         6.99243271092531    8.02296541553408   13.84961283377252
H         6.74220390402508    8.93841871783950   14.36197869731530
C         6.16403492179379    6.91534240802221   13.92771306536410
C         4.85095486261162    6.87247317579436   14.67212912594556
H         4.61747522133305    7.84018999532455   15.11675936863548
H         4.07002667513506    6.60771606315249   13.94320954057858
C         4.53469375653863    6.12175477882321   17.02443124069002
C         4.34890006151709    4.89839304620238   17.63316694933966
H         4.11101299808371    4.73085177111788   18.66243500748321
C         4.55329556903822    3.93276497048408   16.63556053913321
C         4.51373099068390    2.48292081821901   16.78069253463544
C         4.40677224226996    1.64267462385569   15.67162381210654
H         4.31782125472217    2.05979670958766   14.66383173716924
C         4.39731237169365    0.27037721688628   15.82441504314992
H         4.31662200842344   -0.36516632340971   14.95499096910792
C         4.49453356773277   -0.28883394442155   17.08763251410609
H         4.49298148462365   -1.36200471553352   17.20676653632827
C         4.60054671574805    0.53426088548346   18.19637652902449
H         4.68452667706782    0.10298195626626   19.18308934734263
C         4.61043600961532    1.90745699715758   18.04752873040581
H         4.71764936222440    2.53794447943104   18.91649251174542
C         4.49386494284626    7.45390324368064   17.61855771880015
C         3.41731857348687    7.82317840212485   18.42064576557722
H         2.60622075814294    7.12665703469081   18.57082644424234
C         3.38349976442595    9.07554421616591   19.00510702880214
H         2.54278922325272    9.35698151039270   19.62115701280777
C         4.42358179053703    9.96770723432814   18.80196170574373
H         4.39502683364441   10.94527252692335   19.25898367440539
C         5.50570175803814    9.60029465067867   18.01920876536483
H         6.32567727293939   10.28787785149628   17.87285149759030
C         5.54450239084748    8.35032526341688   17.42969470233489
H         6.40417460423238    8.05150997170388   16.84674360793084
N         4.82768846300753    4.55873443434248   15.48879269371762
N         4.82400538361307    5.87774550661631   15.72366697575577
N         6.46158908870805    5.78592024587317   13.29891999074255
Cl        6.40355757609482    3.27125171278732   12.06439621655561
Ni        5.49032738149409    3.82858088095687   13.90139838573594
Br        3.36680462635297    4.14045491217803   12.87837855903194
Br        7.45784580326883    3.12689362516105   15.10111196414354

