88
CSD_code = IHETOF | q = 0 | S = 0 | Stoichiometry = C45H38P2PtS2 | MND = 4
Pt        5.71807062421764    1.60788104054419    5.65999077833462
S         4.92596062206495    2.55290797763027    3.70263921031448
S         3.44230855897775    1.66679180225607    5.98789268143933
P         7.90433016382668    1.45825878095370    4.95830175904800
P         6.23608012257557    1.03580593176672    7.82510250467708
C         3.19674401640009    2.42327149407855    4.31941498068049
C         2.64476734100112    3.81784671637007    4.38349847841658
C         2.91505960804387    4.64824787660741    5.46385222511265
H         3.48905466129189    4.26448882533104    6.29724333440302
C         2.45299972630157    5.95038102180917    5.48256713663739
H         2.66644147996597    6.58131600843071    6.33397374229100
C         1.72054953458272    6.44424602205068    4.41673029149016
H         1.35625212342048    7.46152768778619    4.43152801113953
C         1.46290462454912    5.62873347340738    3.32778492481579
H         0.90023878970924    6.00886347164008    2.48683039173714
C         1.92342761558566    4.32558115590639    3.30715071275571
H         1.72734383749127    3.69660138105139    2.45020626029808
C         2.33654128933594    1.48292648368633    3.52783721706992
C         2.82317087242069    0.71656317046347    2.47978386310683
H         3.85741814884326    0.81523411492245    2.18243267707535
C         1.98886505694393   -0.16258923813091    1.81112296396361
H         2.37992040011836   -0.75066627071373    0.99267701500620
C         0.66331639195874   -0.28734747040941    2.18369945972888
H         0.01265838743123   -0.97279325375947    1.65959457484015
C         0.17298129806838    0.47012576704243    3.23570952806833
H        -0.86082612108547    0.37553464630429    3.53601545186526
C         1.00262665999988    1.34727315247688    3.90470021518567
H         0.62678389298842    1.93340087779352    4.73202025004270
C         8.98655081812891    0.26852801392486    5.88822257712563
H         9.93401170222664    0.16942072201181    5.35047130872760
H         9.16797179309443    0.68375411243052    6.88219216348861
C         8.25909162995631   -1.04062946145976    5.94275070985975
C         8.41983269531959   -1.93421282279753    4.88835523382463
H         9.11519749429693   -1.69306030143051    4.09692109437628
C         7.71019380345004   -3.11884650731414    4.83535767580648
H         7.84676674183611   -3.79149474717780    4.00228290146177
C         6.82258861713434   -3.42962078736036    5.84986560756050
H         6.25148452686102   -4.34498708456993    5.81522245584593
C         6.67971657280741   -2.56624300149631    6.91975002807552
H         6.00463286801498   -2.82242245921882    7.72423988461232
C         7.39066077515823   -1.37314438691234    6.98885389675950
C         7.23301048076828   -0.50188489799932    8.20031664960693
H         8.21061243389364   -0.19142636835790    8.57795061158083
H         6.71391347019849   -1.05406263358878    8.98756858912864
C         8.89891262155452    2.97040844037908    4.83047398842951
C         8.38940375143070    3.95315817999148    3.98164035335596
H         7.48447491795552    3.74456759606376    3.42452614087058
C         9.02598468322035    5.17307861413692    3.86966978533275
H         8.62967602975090    5.92922179719247    3.20848637155439
C        10.16812810456064    5.42850639522541    4.61427280722028
H        10.66535636681679    6.38374357659277    4.53123143854472
C        10.66713195441670    4.46201270891746    5.47069232065950
H        11.55231357142155    4.66371689841555    6.05653878959444
C        10.03532481248298    3.23543328222200    5.58530796377198
H        10.43246097161917    2.49385248058750    6.26269256737275
C         7.96057418644513    0.75440902069792    3.28840707260489
C         8.99763661309779    0.99295615688961    2.39508593280183
H         9.80983745166774    1.65151610240469    2.67292784201020
C         8.97689311158713    0.39334400646808    1.14823431143652
H         9.77820428301096    0.58207990386625    0.44842215629657
C         7.93090022899384   -0.44389775071395    0.79404407649217
H         7.91920155016185   -0.90386340720094   -0.18328888715378
C         6.89845706609577   -0.68695895301536    1.68622198299926
H         6.08188349270557   -1.33658693421818    1.40771403311731
C         6.91272919833588   -0.08864245133581    2.93128963955367
H         6.10528125706780   -0.25315033431069    3.64060257408152
C         7.26695254867726    2.37093002124742    8.51109971839852
C         7.33130954261104    3.55605978882783    7.78477239328031
H         6.74234098801494    3.64706300184598    6.87201687389454
C         8.12751635984827    4.60055848996636    8.21681791778806
H         8.18033283160108    5.51230791662917    7.64085588971537
C         8.85984353517816    4.46841681293212    9.38523355114089
H         9.48898795881258    5.27822443392441    9.72382541593278
C         8.77983419783639    3.30040249312966   10.12810490436371
H         9.33908465607774    3.20636263305307   11.04778236906710
C         7.98594980893509    2.25289371759766    9.69685590060341
H         7.91662151231216    1.34850515658712   10.28626492665097
C         4.85920111506948    0.87890775125852    8.99399448794420
C         3.97859908974057   -0.17830359068131    8.77348895951765
H         4.16650287469132   -0.85710315043140    7.95145606743988
C         2.86913122782122   -0.33472545400698    9.58003189284574
H         2.18504503111747   -1.15201982137794    9.40544961511827
C         2.62673525179150    0.56819730873225   10.60383023842194
H         1.75636652419299    0.44980015553882   11.23225783666837
C         3.48962228740194    1.63094264012324   10.81188724465759
H         3.29110729936576    2.34159586041008   11.60104877470342
C         4.60290452197086    1.79491825767676   10.00616188342907
H         5.26741846238831    2.63368021175830   10.15964785009100

