55
CSD_code = IHEVOI | q = 0 | S = 0 | Stoichiometry = C21H27Cl3N2OTi | MND = 6
Ti        0.58805728178295    4.51191892983524    3.51429004365218
Cl       -1.61377580052995    3.92957657694056    3.37112910732916
Cl        2.78748244748594    4.66813854592481    4.11357180157889
Cl        0.21243981584502    6.63659260420591    3.64751278677202
N         0.87639498702718    2.50585393376040    3.82865559575274
O         0.93393711878199    4.11176737021829    1.87867247273607
N         0.37345633885903    3.81429467863138    5.51666183530650
C         0.12265982019299    3.17240320822079    7.79415262223463
C         1.19005016761336    1.54342045237006    3.03049352406781
H         1.31089194666186    0.51473810067967    3.38749326099618
C         0.64578685537845    2.53834627077403    5.17899132865972
C         1.84568815225727    2.24736039088645   -1.04751475504033
H         2.02574317149441    2.40362366368316   -2.09729773478890
C         1.36593961302974    4.74604869426897   -0.82402121244051
C         1.97916316974464    0.93815438457736   -0.55030584935361
C         2.47526667749793   -1.53444302395943   -0.81505746138974
H         1.52437681191330   -1.82710030890098   -0.37632270906512
H         3.23879249543562   -1.51738668078625   -0.04108487661577
H         2.75461320190788   -2.29183090830902   -1.54414742474225
C         2.36623297851207   -0.17519323375695   -1.51090963775883
C         1.39923859847368    1.79624879191100    1.64497032018644
C         1.75354810475837    0.73568242568150    0.78882197295212
H         1.84288485033038   -0.24440824809759    1.22867648456475
C         0.66648979633219    1.51644051267001    6.12663945308827
H         0.88348427351698    0.49913161773691    5.84093868364973
C         1.26439816554476    3.12007212101874    1.11374649088353
C         0.12054390339801    4.12478316765843    6.77562449751144
H        -0.09026020909839    5.16927353091922    6.98026379186838
C         3.72940274544228    0.15405537937649   -2.13581395049420
H         3.69390557801840    1.07482399365321   -2.71071980670739
H         4.03712306207782   -0.64891265350195   -2.80171657604327
H         4.48222061373524    0.26585766172532   -1.35857794032907
C         0.40108377402456    1.85165920956262    7.44169090602173
H         0.40985199870736    1.08630777962420    8.20436381399974
C         1.50106842135987    3.33150192404283   -0.27129106882324
C        -0.07018176030935    5.24808897434810   -0.59794777881897
H        -0.78365787222512    4.57331623947781   -1.06796575359082
H        -0.18513069186524    6.23552839093332   -1.03948665102457
H        -0.31183277420643    5.32279733929460    0.46452271480513
C         2.36743008206247    5.66929866862994   -0.10930498476294
H         2.31670115947730    6.66640760705840   -0.54105855006587
H         3.38107675392273    5.29077810546863   -0.22980010080681
H         2.15376813678940    5.75240708667158    0.95872765852354
C         1.65694049477213    4.80872831749574   -2.32767005950744
H         0.95792903307441    4.19438059028163   -2.89083539347177
H         2.67464934183351    4.49263321384366   -2.54575271905469
H         1.54719078430541    5.83533094164896   -2.66920173414607
C         1.29882102869538   -0.28272476868817   -2.60907907458987
H         0.32574276044503   -0.48888399296472   -2.16861288403050
H         1.54753815331037   -1.09217930426910   -3.29165784269605
H         1.22443058602527    0.63491920885354   -3.18543562604641
C        -0.15753819225029    3.54879363423490    9.21156520120026
H        -0.38922824211832    4.60656436918870    9.29442384772201
H         0.70809700653452    3.33056527451989    9.83574809994819
H        -0.99772671559927    2.97314924128931    9.59674184053976

