87
CSD_code = IHEVAT | q = 0 | S = 0 | Stoichiometry = C45H38P2PtS | MND = 4
Pt        7.69854466371128   -1.45345561110501    5.16558813098468
S         7.97420748029625   -3.74321787368787    5.41042772036214
P         6.32713557668523    0.38651927912569    5.08295363151827
P         9.81298951353176   -0.54964958433148    4.92424024644591
C         6.36097151977303   -3.04618069609332    5.38740760868188
C         5.52496934300570   -3.25708591913380    4.18984808763392
C         6.01645282483739   -3.91189295547598    3.05764974732947
H         7.01647917328798   -4.32267093456851    3.07992176951069
C         5.24083456537752   -4.04784318849597    1.92333723346797
H         5.64340821450089   -4.56084339575700    1.06108261299369
C         3.95240943948846   -3.54194593760063    1.88914225699284
H         3.34400046950126   -3.65402931929630    1.00347305442391
C         3.44853396135398   -2.89261700688303    3.00433540969642
H         2.44503104606469   -2.49043152644334    2.98895735220128
C         4.22243266451126   -2.75031349912718    4.13751081933950
H         3.82288260354525   -2.23330997231367    4.99775332877568
C         5.71411099162904   -3.01633755078751    6.72177804814227
C         4.55373832318645   -3.73333280395163    7.00630737968937
H         4.09821096203492   -4.34137561424512    6.23737954520185
C         3.99085152161577   -3.68320344762401    8.26817046244949
H         3.08761143278390   -4.24137562358339    8.47096360955851
C         4.57896668079916   -2.93178521230487    9.27105856814208
H         4.13278824778317   -2.89333981417356   10.25420200024393
C         5.75270136306944   -2.24372940293761    9.01080321137130
H         6.23004734434230   -1.66960648549637    9.79194404608227
C         6.31451727896871   -2.29110578642549    7.75214505268150
H         7.25118350550843   -1.76165619633569    7.55427660423738
C         7.13735045990254    2.05572463638521    4.86793476062439
H         6.35207542652421    2.81718914063367    4.87646048687425
H         7.80299734510661    2.22313341761671    5.71541497865974
C         7.87318804029852    2.06748143126162    3.56191312928374
C         7.17759880954724    2.46286018126856    2.42241666947914
H         6.15549770141388    2.79873396916891    2.52215998845443
C         7.76134017131829    2.43559006694994    1.17108116605608
H         7.19246218942961    2.73779254029917    0.30484468536734
C         9.07389783655027    2.01894695615014    1.04027499394226
H         9.54479823598211    1.98494423872296    0.06949790548800
C         9.78713741391117    1.65703958796867    2.16616040007977
H        10.81905787991762    1.35210988857266    2.06513570775453
C         9.20999272689443    1.67379846010075    3.43269473516341
C        10.06302194687407    1.26340606665572    4.59557969568139
H         9.80585530856656    1.81563269092376    5.50227893665995
H        11.11860055407326    1.42966691427368    4.36305314946295
C         5.32915458092365    0.63856848445673    6.58192192602021
C         4.02459809580388    0.16237769474828    6.67229946052488
H         3.54739068753293   -0.25654430109570    5.79841954585124
C         3.33840292077901    0.22344189408671    7.87036244123005
H         2.32694154779838   -0.15116474108978    7.92807842195327
C         3.94689834543583    0.75352857617115    8.99537904806414
H         3.41036254850304    0.79716861878228    9.93135973804893
C         5.25038960361886    1.21554488261914    8.91936457811027
H         5.73315709613617    1.61880100284773    9.79789300265419
C         5.94116290355047    1.14871110828349    7.72461976528477
H         6.96935510031874    1.48078676315332    7.68060860992258
C         5.15899790554519    0.46956895840526    3.69465607431644
C         4.03284085265004    1.28519170739870    3.67942267290089
H         3.78251926959218    1.88153078999305    4.54675721416124
C         3.23425130876827    1.33081297290087    2.55133806689833
H         2.35335625919020    1.95694565237567    2.54229401365878
C         3.56301151269026    0.58232339854545    1.43164119304775
H         2.93406554941304    0.62442756014757    0.55447439515732
C         4.69558064015228   -0.21420095531536    1.43573907848576
H         4.95690582664601   -0.79332558943704    0.56306769546327
C         5.48761992415583   -0.27130788354406    2.56635725315293
H         6.37307727945631   -0.89577297149182    2.59273023963853
C        10.51498984248824   -1.23823880052440    3.39566160642378
C         9.63362522513837   -1.82374162161819    2.49607706483569
H         8.58030791998488   -1.88567976638861    2.76393084816537
C        10.09645665704456   -2.33545164763445    1.29871675595204
H         9.40885493646714   -2.79172698572603    0.60192982924673
C        11.44729432470066   -2.26736721014783    0.99970555604375
H        11.81531143762473   -2.66858474252084    0.06666096669014
C        12.33266360652319   -1.69440018917733    1.89961961376132
H        13.38707533771792   -1.65248728624426    1.66666661562228
C        11.87111646147734   -1.17828876328806    3.09637393869504
H        12.56168904852870   -0.73851029452409    3.80409615797399
C        11.12074735457640   -0.94107540699747    6.12650421129560
C        11.35179577285349   -2.29933376957651    6.33942044443477
H        10.76147345967928   -3.02458974453332    5.79350932778517
C        12.30968436675466   -2.71083634441208    7.24414865743053
H        12.48571435365613   -3.76479024625904    7.40002143107361
C        13.03755546593735   -1.76993363911546    7.95681193961638
H        13.78555456478154   -2.08844457425488    8.66792376175940
C        12.79839456317828   -0.42026318056772    7.76375488146777
H        13.35920482924302    0.31345709713317    8.32517443132404
C        11.84163418038542   -0.00200305009429    6.85418028735398
H        11.66443377460430    1.05514243558272    6.71886831123191

