81
CSD_code = IHEVUM | q = 0 | S = 0 | Stoichiometry = C34H42CrN4 | MND = 4
Cr       -1.23219639469802    4.85769623207689    4.07361293516077
N        -1.08043330341223    3.00408624507645    3.45737289040241
C        -0.45289024855770    1.83531573614056    3.67081889454841
H         0.30362880540644    1.72756252178671    4.42666063498638
C        -0.91828856803969    0.84682324148155    2.80844405180735
H        -0.58450242935479   -0.17305681822485    2.77931367859509
C        -1.88985424311407    1.43298050445711    2.00570843998873
H        -2.46315167636930    0.97053276169173    1.22561152399470
C        -1.96892845930827    2.76798903996447    2.41234322736477
C        -2.69577430047691    3.87185822849835    1.95945343379080
H        -3.42048058265855    3.79173545298269    1.15186974182388
N        -2.45537116976636    5.01468739876132    2.55488961606045
C        -3.16563215987315    6.14213298840896    2.09443974199430
C        -4.28934215711278    6.57849923998946    2.80571783776858
C        -4.97622900806090    7.69280778522318    2.34446136511350
H        -5.85330577452374    8.03736638111215    2.87002717108355
C        -4.54884949001266    8.36939494047131    1.21883317334319
H        -5.08839639318302    9.23913730134415    0.87420067224930
C        -3.42812166666862    7.93815142443084    0.53127128338149
H        -3.10485096736238    8.48596027723647   -0.33911962888675
C        -2.72741459572965    6.81449157803259    0.94294873064094
C        -4.74674875652700    5.84252547879552    4.04494708322679
H        -3.95136501872962    5.13866897626754    4.34232738279316
C        -6.01039476675676    5.03523610815232    3.73806513668817
H        -5.81852522705705    4.31538609734605    2.94495094692278
H        -6.81504734011768    5.69339163185100    3.41695521714417
H        -6.33855823375817    4.49422772805560    4.62301187912080
C        -4.97468791574633    6.79573575361173    5.21893758723547
H        -4.08498688011021    7.39796308552253    5.39147098744411
H        -5.18834669822678    6.22707596113253    6.12170197216098
H        -5.81376108184582    7.46123424649377    5.03280928510760
C        -1.48089112471031    6.33638038871656    0.22862236541263
H        -1.46970366103581    5.24072925388800    0.25856777631792
C        -1.41899026715908    6.75987612194213   -1.23798300696069
H        -2.34357283839698    6.50845257399585   -1.75295204184486
H        -0.59988218759331    6.24147492736474   -1.73183062820590
H        -1.24199771222866    7.82855635647152   -1.33268985478836
C        -0.24007191755908    6.83758240758673    0.97769690998288
H        -0.22184259515705    6.44065879886682    1.99848926539383
H        -0.24191577591153    7.92470938939210    1.02719755606839
H         0.66266464744487    6.51345891574967    0.46445837945037
N        -1.26192491605960    6.74202485578127    4.60948456243516
C        -1.64473122422784    7.97328807483996    4.23160974413983
H        -2.10976540182392    8.15543826773639    3.27977811207489
C        -1.36117536746465    8.91526143237814    5.21634614703279
H        -1.57245151438497    9.96645534326533    5.16321438118362
C        -0.76163259153714    8.23396925556516    6.26913904881074
H        -0.40824323864687    8.64006413753549    7.19719395934740
C        -0.69806131907484    6.89508174269735    5.87278124020955
C        -0.16048337381716    5.74282937146913    6.45201814758427
H         0.29341931975288    5.75374707478882    7.44078179765945
N        -0.22918006418740    4.64439733296224    5.74007025299324
C         0.32008336003405    3.47411774760212    6.30213103547199
C        -0.53266662767335    2.54184230031129    6.90466877843524
C         0.01868665534653    1.38751656802931    7.44285521347469
H        -0.61983571276130    0.66177625605664    7.92232974574422
C         1.37800889964970    1.15417461337296    7.36999457251080
H         1.79355869861970    0.24840078770805    7.78623695499037
C         2.21083762775877    2.07716174514955    6.76240931415600
H         3.26788658416226    1.87252489205644    6.70787478921093
C         1.70475170249196    3.25497927459248    6.23331819413121
C        -2.02191708978340    2.79484085072508    6.97382907725981
H        -2.25744610655861    3.65555725953703    6.32600354916126
C        -2.42721875725604    3.14906027902368    8.40662331868868
H        -3.49536081890680    3.34855538327687    8.45960539204529
H        -1.89353501151846    4.03485290152132    8.74504073772280
H        -2.19484021575155    2.32918969584355    9.08295231633279
C        -2.82405861699452    1.60044444735671    6.45501906523294
H        -3.88116277251534    1.85486405787710    6.41187422746968
H        -2.71096533563004    0.73511061950804    7.10308400833762
H        -2.49153144183225    1.33084223585529    5.45463752832814
C         2.58739407320368    4.26920186702673    5.53688670284065
H         2.20398268520285    5.26985640212455    5.76735493498660
C         4.04653292308315    4.21746901101243    5.98708187164834
H         4.58058784515476    5.07758766937796    5.58892306084635
H         4.54024944723808    3.32040020639772    5.62112941316617
H         4.11832302244930    4.24190904029442    7.07218939016829
C         2.49444899429369    4.07078529892748    4.01907853054772
H         1.46518917100206    4.21884231265249    3.67487312918217
H         2.81014274517840    3.06491651616692    3.74932276873189
H         3.13601389782947    4.78598620940405    3.50892137180787

