107
CSD_code = IHEWUO | q = 0 | S = 0 | Stoichiometry = C29H64N2O7S2Si2Zn | MND = 4
Zn        9.70501005788211    5.93711048888559    6.96604396861746
S        10.50378338838657    4.14348010690590    8.20688384534210
S         7.72339538250091    7.13946080698392    6.75608297969149
Si        9.48381851447765    2.77636916495932    6.97735632606847
Si        8.22843618658584    8.95750835932737    5.83876912805450
O         8.93312598928794    3.79856098988823    5.82077237965373
O         8.20539171878977    2.03861521780274    7.63100808176983
O        10.42066133925373    1.56753654565882    6.41103488560870
O         9.66722384784365    9.41893699574441    6.48141281912792
O         8.44110563469130    8.87454827495781    4.22782833556702
O         7.06560937787067   10.06961238926113    6.07336255409925
O        10.71519027080233    7.62959857822440    8.24278694537938
H        10.35121783315108    8.38650086759288    7.74175360294249
N        11.18475975872630    6.36701696007202    5.49895861534990
N        13.10665804739117    6.37296522173770    4.46700716274754
H        14.09797028951281    6.29890656604378    4.30590311311959
C         7.89812771768297    3.55102733657003    4.87099760647502
C         8.07420619475945    4.58556472018832    3.75805013260646
H         8.01950912625055    5.57923728491103    4.19512733447015
H         7.28961311189447    4.47571871475895    3.01313312029468
H         9.04382398926668    4.46275643638814    3.27887821041606
C         8.01185455738175    2.13959266270032    4.29881464345300
H         8.99071123596961    1.99507677400078    3.84747409748950
H         7.24640822729537    1.98177058250555    3.54254814372027
H         7.88780164981857    1.40858051313065    5.09142239631469
C         6.54654548336786    3.74308079011094    5.55688820353053
H         6.44856167972147    3.02335641075002    6.36330336507603
H         5.73571037981243    3.60872068098368    4.84509744500226
H         6.49469446555292    4.74295953424947    5.98170780673151
C         8.12261479941295    0.97792901233823    8.56778823324791
C         6.77148685491588    1.13321392341816    9.27053279078333
H         6.73837486724198    2.08782152546112    9.78864664655077
H         6.62401798027466    0.33023889467167    9.98750524580268
H         5.96677266771491    1.11002001158948    8.53975466078864
C         9.25989109817555    1.05718118580124    9.58138620399276
H        10.21004321273157    0.90739348833067    9.07760644076827
H         9.13497794497645    0.30065877950929   10.35142546541892
H         9.27609553075787    2.04183191505830   10.03988850083375
C         8.18841318841635   -0.34477968953432    7.80125081774694
H         7.34897549887888   -0.42154866099739    7.11382732067360
H         8.16065885201824   -1.18463444383093    8.49019439397880
H         9.11110041774792   -0.37366162280020    7.22872565059465
C        11.75478180338307    1.50991359900672    5.94162868356551
C        12.04714629311675    2.67978818919751    5.00239649301720
H        11.36138042151183    2.66278363281374    4.15887888652102
H        13.06814788668074    2.62275670712289    4.63317401120513
H        11.90563338344053    3.61340208412793    5.53850273049332
C        11.88601363016384    0.18036027018791    5.19059364690419
H        11.65180827250237   -0.64498354224224    5.85795635043067
H        12.89870627442544    0.05666718610735    4.81664248501321
H        11.19087732873345    0.15351985241325    4.35518276781196
C        12.70889761726433    1.54303232030805    7.13781892860522
H        12.52409642408299    2.44097998168176    7.72188817507582
H        13.74174811991159    1.53117828675487    6.80074463906197
H        12.53489623664504    0.67923890229390    7.77444803761702
C        10.54981593315258   10.47021266661010    6.10056129505385
C         9.77048515999029   11.72042895858767    5.70232279594802
H         9.13984032543410   11.50274513800942    4.84695432818114
H        10.45573938402780   12.52606163150790    5.45016951226104
H         9.13480229573950   12.03927746296471    6.52390421850359
C        11.43138064302117   10.77042517694535    7.31767912356420
H        10.81375085855190   11.06354901097460    8.16375425625354
H        12.11710300204034   11.58197851276538    7.08815093678423
H        12.00765955738628    9.89090302215234    7.59356999237026
C        11.40638392168165    9.98716622085545    4.93073745548572
H        11.99944802276324    9.13070701504113    5.24024872354233
H        12.06830656773574   10.77932543143239    4.59049762476034
H        10.75472931670061    9.67927896297120    4.11884494698916
C         7.50616887480301    8.94217730579671    3.15954605965478
C         8.17423491779565    8.28133349047775    1.94880563700648
H         9.15246768829381    8.72449435334751    1.77657221007686
H         7.56103466920137    8.42330481527530    1.06306520852908
H         8.29915267912995    7.21533577530929    2.12094741661733
C         6.21166801534335    8.21473538397156    3.51189277228008
H         6.42583432648219    7.19705458979454    3.82467391445399
H         5.54695271714358    8.19346965411528    2.65222850573973
H         5.72200289729378    8.72316563415424    4.33574557508948
C         7.21273282693658   10.41530886627747    2.86450683626105
H         6.47346878856047   10.50253738631239    2.07282428231670
H         8.12278969914525   10.92594751805292    2.55661202907455
H         6.83213605299688   10.88557906276257    3.76655198946906
C         6.24881526142291   10.40226425547452    7.18593947696446
C         7.03219555256973   10.28245312249957    8.49174058756961
H         7.30162709967443    9.24256887033401    8.65297862795811
H         6.42909933000210   10.62960195663198    9.32617924330978
H         7.94214177451656   10.87505907401664    8.43819455263946
C         5.79512320147790   11.84894478279611    6.96423447426859
H         6.65430267710680   12.51522442076788    6.94811548657204
H         5.12238436756993   12.15689623657915    7.75967301389738
H         5.27787804217190   11.93264604442802    6.01158417923139
C         5.04279427219285    9.46171976089277    7.21528888516968
H         4.44915095999358    9.58258028400160    6.31225249587674
H         4.41964131130508    9.67649511610734    8.07871235327958
H         5.39310292304770    8.43417020286155    7.26892267947506
C        10.96618453820560    6.63926425464972    4.18134952559412
H         9.98198548001841    6.84705126563770    3.82036464767608
C        12.15320875715692    6.64450137689904    3.52058368771795
H        12.39678952819120    6.81112207253659    2.49242214801314
C        12.48291597337256    6.21500896688100    5.65484491108188
C        13.19279358907055    5.95553017636667    6.92302380290354
H        13.21122812829153    6.86203256960367    7.52540568099112
H        14.21001780351380    5.62020661322210    6.73674062300499
H        12.64798885931307    5.21127214336199    7.50468981048140
C        10.32046882914856    7.74515323099459    9.59721210766418
H         9.23502298993992    7.82268737748651    9.69386732298804
H        10.79041640708071    8.62129908205621   10.05626913492270
H        10.65655114111650    6.84067193261053   10.10054743920979

