98
CSD_code = IHEYEA | q = 0 | S = 0 | Stoichiometry = C27H58N2O6S2Si2Zn | MND = 5
Zn        7.51294607033926    0.19319278304498    9.71262777662363
S         8.26617169849770    1.78966635485248    8.23083203242930
S         7.78709383232276   -0.82068372657142   11.74703533303254
Si        9.54040372763073    0.32404617615767    7.42375416174176
Si        6.33145859837025    0.49560647704338   12.50690259506358
O         8.94659981013895   -1.01867160434429    8.16146364151859
O         9.35327394550904    0.07876209538365    5.83506740529635
O        11.12393814904495    0.58944738880363    7.66963918437257
O         5.81897091214486    1.19866409984309   11.11231537621763
O         5.03652793887454   -0.21427604403621   13.16196425659725
O         6.89239275543248    1.54235269781804   13.61669661957574
N         5.93081505663044   -0.75777114495644    8.65591261376146
N         4.69656474614164   -1.33171349729951    6.95078419448320
H         4.33240666358864   -1.37509240998907    6.01263400323126
C         9.23396072895797   -2.38784310949337    7.87377841038618
C        10.71702000636152   -2.58001941229780    7.56507023690839
H        10.99364086009903   -2.00138153619354    6.68873510939944
H        10.92648147790716   -3.63110248444515    7.38169093617930
H        11.31602992098642   -2.24323345077736    8.40625766854630
C         8.39353850507044   -2.82492954016504    6.67055449034754
H         7.33607375200575   -2.76495373998973    6.91587690288414
H         8.63457742225884   -3.84820276716067    6.39463216064440
H         8.59643675559531   -2.16403191330192    5.83309959436998
C         8.84619523896116   -3.19369344877778    9.11361654138173
H         7.78672216626559   -3.07102263533366    9.32121042704631
H         9.39282420260558   -2.83330393083675    9.98057265393513
H         9.06242653617541   -4.24779556344799    8.96026841301443
C         9.90223132203842    0.79095878715779    4.73803168652018
C         8.98249180670956    0.51393310691102    3.54496964281154
H         8.89631554546873   -0.55792717863862    3.38283332804534
H         9.38193262624249    0.97661892928291    2.64703784025797
H         7.99259444349642    0.91734486823421    3.74221895716889
C        11.30940768093998    0.25596340839243    4.46941986031840
H        11.26656027525003   -0.79986654931555    4.21134966119025
H        11.90591796268101    0.37161213057733    5.36937667557822
H        11.77327525483589    0.80251080230032    3.65295510835168
C         9.95171627004294    2.28648897658711    5.03231399543754
H        10.65818684812346    2.47614069873095    5.83356698444659
H         8.97491044650554    2.63048127249718    5.36089035663011
H        10.25261646183507    2.83778063477113    4.14567884252596
C        11.86597653484152    1.10269898565346    8.77150362787810
C        13.32513756842834    0.71669740798001    8.50682424290521
H        13.65387350714693    1.13483220306045    7.55847449184039
H        13.42235621568058   -0.36500633913837    8.45887321965829
H        13.96267432553528    1.09584080428493    9.30038246326716
C        11.71416328460163    2.62439212190665    8.80882797235593
H        12.08854685708342    3.06103055521531    7.88575988851233
H        12.27103434973551    3.03637102603550    9.64560807858305
H        10.66372599924139    2.88466900200712    8.91144153333438
C        11.38981791723721    0.49370005685563   10.08771309395877
H        11.46619700596979   -0.58979964900622   10.05754698620536
H        10.34730757135041    0.75088621557494   10.26607150196220
H        11.98938065056771    0.86692236475098   10.91321067651852
C         4.67210755025216    2.02587522704711   10.91333087255351
C         4.91565811083275    2.81816591376054    9.62830719163787
H         5.04566442078428    2.13808461518394    8.79091339579807
H         5.82608580437954    3.40448576445252    9.71668337467107
H         4.07680801398517    3.47993600323133    9.42851187612699
C         3.44078977149749    1.12903881935434   10.76456822022438
H         3.33716645775789    0.51440022466866   11.65370891729994
H         3.56015173882344    0.47462899820282    9.90469916669803
H         2.54686831157680    1.73314788463022   10.63209765668904
C         4.47661692601748    2.98160154145553   12.08830792608891
H         4.31312074507830    2.41907485821128   13.00251852807710
H         3.61984852243391    3.62574441313081   11.90556368113477
H         5.36096893895709    3.59937569373345   12.21560535815059
C         4.87055784334344   -0.78604379524909   14.44939547187084
C         3.72009451781694   -1.78917599934709   14.32679933369369
H         3.99484798910307   -2.57957881990660   13.63332722475253
H         2.83018729577522   -1.29072027623166   13.95006250471825
H         3.49776862479760   -2.22689527986105   15.29581239519795
C         4.51199435946600    0.33154800733960   15.42985579816696
H         3.57597015577271    0.80158754773497   15.13657937232275
H         5.29888043534448    1.07968356999950   15.41156825176478
H         4.41002752472681   -0.06506576394684   16.43621821367405
C         6.14509664343402   -1.49373102585654   14.89683847982603
H         6.46606676303052   -2.19427512929765   14.13102678309971
H         5.97601962427453   -2.02599940116379   15.82889144242536
H         6.93742111203832   -0.76509360427907   15.03480461647108
C         8.10241552279871    2.28259331955735   13.73428149355225
C         8.48592707185987    2.92574038737720   12.40361649612958
H         8.64643972879534    2.15926016500189   11.64759090861632
H         9.39796541933279    3.50540404417626   12.51564729009211
H         7.69228166505775    3.58054355134690   12.05385355455340
C         9.21598154513071    1.34732479564194   14.20878819618652
H         8.95286027616452    0.91096938895862   15.16951373348444
H        10.14785125203345    1.89586207241682   14.31291371385554
H         9.34848281185772    0.54232141171789   13.49047662376229
C         7.82826649933338    3.36389124159552   14.78510698979941
H         7.54277314209607    2.90178821648950   15.72695129448226
H         7.01496893727864    4.00596760121780   14.45624357168847
H         8.71704865777784    3.96828589483156   14.94247940285280
C         5.02487846786301   -1.67892844824735    9.07713542822623
H         5.00060498878702   -1.99746696684232   10.09955000013199
C         4.24358847095015   -2.04849262860360    8.02345978985878
H         3.42949396437253   -2.73901618199076    7.94965798906567
C         5.71601328257629   -0.56682448727232    7.37999518545388
H         6.28232988517049    0.10148587943227    6.76236882981605

