50
CSD_code = IHEZEA | q = 0 | S = 0 | Stoichiometry = C19H24Cl2N4Ti | MND = 6
Ti       11.48131194219600    6.45974633691486   12.17753413303640
Cl       12.40382825359710    7.90183499359445   13.77030252219684
Cl       10.94465986279509    5.52986730750042   10.08473286641071
N        10.09224526049360    5.99706248764239   13.00001384168032
N        12.38040320647666    4.74494268585531   12.93288783640108
N        13.43688285897808    6.78910088419109   11.12916747167587
N        10.60775846297203    8.27873838225138   11.36149709825411
C         9.05415954890511    5.42341531705516   13.74744394930449
C         8.54786793465625    4.14273998454630   13.04666353004919
H         8.28601541628232    4.38013935266270   12.01678217636704
H         7.67702505988952    3.74030562065487   13.55953374981873
H         9.33555319785943    3.39119857199324   13.03687778277023
C         7.88625171177862    6.43021366848612   13.86030544100228
H         7.58972539559445    6.75145017686927   12.86238539208630
H         8.20453553931136    7.30052247189574   14.43076203284790
H         7.03441969535461    5.97252078478055   14.35821661427272
C         9.56236055457531    5.07939703937957   15.16608638948405
H        10.03091010196017    5.96120449766435   15.60147763098869
H        10.30592648786022    4.28504241404658   15.11258662678389
H         8.74015213969620    4.75431778582384   15.79963706801461
C        13.03814493562749    4.76123339810080   14.09744285427276
H        13.29173260185231    5.73866205224004   14.49675377704708
C        13.37040726935446    3.60911786694528   14.79161925267866
H        13.89318521913629    3.68220662196393   15.73266287679567
C        13.02237750828252    2.37557545661416   14.26293124207433
H        13.26113102671214    1.45945839709111   14.78176551433018
C        12.36003693421344    2.35455490137358   13.04264064922940
H        12.07410789327446    1.42098047855126   12.58293192505321
C        12.06305097180405    3.55140066346902   12.41512077402909
H        11.53594484299227    3.56686403200074   11.46510569061778
C        13.78730191468675    8.05045281814233   10.90033196218390
H        13.33035335753271    8.80050760711145   11.53796388634797
C        14.70926042043293    8.41732288385900    9.93111117967207
H        14.95274970918134    9.45803427925194    9.78239494556292
C        15.30285527043946    7.42602881346849    9.16751188775541
H        16.02184093891523    7.67311019745444    8.40004996971335
C        14.95378236076258    6.10794812397402    9.41618519317001
H        15.39325405368212    5.29967881563308    8.85300616777709
C        14.01575735157403    5.83967693885502   10.40045560128144
H        13.71607187375123    4.81779412915181   10.60483870497864
C        10.63417925779807    8.63164546522437   10.07846964598380
H        11.23918078861201    8.02272817605690    9.41404887362216
C         9.91449252746619    9.70627366375244    9.57675893529867
H         9.96693979300842    9.94658479755446    8.52624477710339
C         9.13295316253225   10.45110220838821   10.44408705172436
H         8.55502476274467   11.29057887996017   10.08647701593388
C         9.11380504650550   10.09199098274226   11.78356427857819
H         8.52445650301016   10.64429717871900   12.49857778579964
C         9.86436525964227    9.00279890311385   12.19704752594056
H         9.88516381323863    8.69063050543038   13.23670590199697

