56
CSD_code = IHEZUR | q = 1 | S = 0 | Stoichiometry = C22H26ClN6Ru(1+) | MND = 9
Ru        2.25821776723383    8.78945203793541    4.30653137279589
Cl        2.98826668955684    8.63963717183877    6.52809878298699
C         3.75485937035030   10.54129660485418    3.78783680177566
C         4.39081387008277    9.27357453108068    3.60442706447978
H         5.34627997012481    9.09274577940553    4.08764499492502
C         2.64566340324169    8.55471088363455    2.04381852265917
C         3.87283620862121    8.32413178683794    2.72151820725792
H         4.42937002619139    7.41781401212592    2.51491081649384
C         1.98577665241390    9.78103364820437    2.26524465062060
H         1.09190242959914   10.01673966352235    1.69715229107497
C         2.56263450124143   10.77764039399387    3.09560279791975
H         2.08887340925669   11.75040820978646    3.15110081786579
N         1.60169486589374    7.01708215822634    4.63218174730121
N         0.49676955740253    9.13793288127093    5.18801381094638
N        -0.07596029449545    8.04656182445491    5.75468704280152
N         2.77382097542461    3.76861176383809    4.04942767232047
C         1.99287850775461    4.77613384973125    4.52925611234690
C         0.14744480903157    5.55387226870676    5.82626881094258
H        -0.69446489161412    5.39412370515900    6.47562401412676
C         0.53031847515519    6.84059698009692    5.43368757715273
N         2.48661893636491    2.47871048593904    4.32154710097235
C         0.89711689062746    4.49517858642490    5.37193884960943
H         0.69025889523413    3.47236025391686    5.63675197273160
C         3.91103958294184    3.87089611726151    3.28789104037329
H         4.28715490619000    4.82787200885631    2.99451120380141
C         4.35357255292363    2.60481418172643    3.07420131346244
H         5.21599323448892    2.29008241024249    2.52456956268242
C         3.41797969184921    1.75956843124542    3.74810970755206
C        -1.14054945899396    8.41475197882634    6.52672494232322
C        -1.22112681501469    9.78789752034741    6.43633779937541
H        -1.94002847460279   10.41844066724306    6.91630674977673
C        -0.17755855751248   10.19421438770464    5.59938568375395
H         0.09232284665946   11.18758618258673    5.29676995921346
C         4.40792272801240   11.60439568928748    4.63716146736134
H         5.21018071452456   11.13287953753786    5.21418978119505
C         3.41964851024532   12.22524787445531    5.62641251771186
H         2.66937156470414   12.82514463807779    5.11695906085205
H         3.95327423746458   12.87169731247768    6.31712836795782
H         2.92511770525307   11.44304686737470    6.20185410353816
N         2.30107177243023    6.02355762333433    4.18384634512214
C        -1.99959737141790    7.48817375388452    7.29787091682168
H        -2.75114117067881    8.06641269849894    7.82789945814134
H        -1.41411735175371    6.93482069771273    8.03099223078982
H        -2.50988928761456    6.78249858599138    6.64315684321579
C         5.02613131259769   12.66991768990172    3.72499542921040
H         4.25853719798137   13.17364240626538    3.14184229016969
H         5.74424911023853   12.22407859514646    3.04028087556763
H         5.54150117753640   13.41180724150208    4.32811649380791
C         2.13037050082307    7.55399776966575    1.05783491254886
H         1.08746930081873    7.74075660343511    0.81245711623367
H         2.22940655841422    6.54144533825194    1.44625712155697
H         2.71408808542867    7.61731261821776    0.13862948670636
C         3.44763015424557    0.28278078841268    3.82550765529128
H         4.36757198518483   -0.04608966245351    4.30641937925960
H         3.42286762984140   -0.14570997760992    2.82492752994727
H         2.59584440209995   -0.07648805639122    4.39458082257387

