51
CSD_code = IHIDOS | q = 0 | S = 0 | Stoichiometry = C16H20N14Ni | MND = 6
Ni        0.00017790540840   -0.00085909967270   -0.00008540297871
N         3.46541112528770    1.47162252455808   -1.62000620139384
N         1.28697213734933    1.12940867186210   -0.65336479964990
N         4.63019590751221    1.71731641403765   -3.74577734650373
N         1.34486537419966   -1.22017724338447    0.59226491327671
N         2.72675412418360   -1.95616821438988    2.18309601845786
N         0.38897214100168    0.82258049253301    2.15696007013887
N         1.85220372961346    0.40057628838445    3.81155494390820
C         2.31790985660577    1.23566709876375   -1.20792887811076
C         4.02808739117966    1.60210547376080   -2.76833297833135
C         1.79235669466086   -1.04919644958955    1.78428789739327
C         2.80304980301907   -3.00050056334917    1.17041514394047
C         1.95296836674715   -2.40354660925093    0.02258699969126
C         1.34821205898135    0.08501350689424    2.57888614260871
C         1.24745000702192    1.66169921487148    4.22037886116713
C         0.14975880070625    1.85496882111568    3.14238566117561
H         2.86633387297484   -2.18216988745461    3.15355026798138
H         2.38911855586230   -3.94403656571592    1.54128781457673
H         3.84287970003740   -3.16246976317931    0.87811629730414
H         2.56538813467759   -2.10997614254837   -0.83412212861112
H         1.17218334731100   -3.08009904965547   -0.32990565522517
H         2.81000908961497    0.20716462695270    4.05295338292861
H         1.97904320517297    2.47630342099753    4.21301861672060
H         0.83212908403289    1.56853422806574    5.22597883796758
H        -0.85385578423435    1.71963923458312    3.55392407849383
H         0.19296023734833    2.83484980596702    2.66303365065767
N        -1.28666836672703   -1.13103641243291    0.65370373301326
C        -2.31817098753140   -1.23377903902687    1.20790954696908
N        -3.46603485025774   -1.46748898837666    1.62024198511011
C        -4.02990240763477   -1.59060002250448    2.76877930054865
N        -4.63290549923854   -1.69932346321103    3.74616013206532
N        -1.34444597180645    1.21856035752602   -0.59244866813027
C        -1.79199643276553    1.04764961817847   -1.78446181306112
N        -2.72643435039961    1.95462028935998   -2.18317520423640
C        -2.80270946540799    2.99888176135283   -1.17040809178332
C        -1.95258007548629    2.40186161996448   -0.02265433612959
H        -2.56499117020080    2.10819853797462    0.83403470129294
H        -1.17182895792973    3.07842061691371    0.32990687158926
H        -2.38880907039694    3.94244998094297   -1.54123042762491
H        -3.84253061829262    3.16080489343026   -0.87806360183202
H        -2.86603503655826    2.18073132380267   -3.15360369206087
C        -1.34792384735184   -0.08659501339524   -2.57904834196950
N        -0.38878823629287   -0.82426214992385   -2.15705561969944
C        -0.14971790359769   -1.85676880076387   -3.14239366969181
C        -1.24732693512642   -1.66338587964112   -4.22045050293113
N        -1.85192624662163   -0.40217609203037   -3.81169463154900
H        -2.80965343035026   -0.20854996330560   -4.05321291042907
H        -1.97902838381763   -2.47789281408127   -4.21310766712947
H        -0.83193730015251   -1.57030976074118   -5.22603244889154
H         0.85394003730113   -1.72166362616916   -3.55389658453342
H        -0.19312935963439   -2.83659720899840   -2.66295426649040

