38
CSD_code = IHIGEN | q = 0 | S = 0 | Stoichiometry = C16H14MnN3O4 | MND = 6
Mn        1.28221091623195    1.74718533288781    2.52482846672938
N         2.18147262997928    1.07253145566856    4.21475347417008
N         2.32371611199278    0.08406075216877    1.70808664386151
N         3.25216049850453   -1.22004147174218    0.21289855005766
O         0.09209585692857    2.67319037863364    0.01149396949461
O         2.97597712995340    2.80163102020247    2.23168813436290
O        -1.23713806279851    0.25899888682987    2.72700840002606
O         0.10350988517359    4.06485709392416    3.87160479345769
C         3.12698099573116    1.67010171765278    4.86453901255286
H         3.49124815597449    1.19991321712892    5.78671742868556
C         0.60639812820113    2.30868419375270    0.97584501458524
C        -0.21681327599385    0.80430043417722    2.69548482397529
C         1.89838441215335   -0.28902905989130    4.61895665398223
H         0.85057623388087   -0.52823941933136    4.41840127561655
H         2.09198726159953   -0.43086311852017    5.69283496791291
C         0.56311192427727    3.14716856819724    3.35576617455539
C         2.81275622948479   -1.24468980196880    3.83507518982470
H         3.83901770773898   -1.11637754814998    4.19932942965942
H         2.51989611428436   -2.27856965840356    4.03346588461012
C         6.33361318550569    6.11787249809920    3.25097025285831
H         7.38124642683710    5.83466510926024    3.35398742887770
H         6.15809035475867    6.97771408988580    3.89624027036549
H         6.15111750272565    6.40974895463996    2.22010669475214
C         3.81327526635859    2.84539632188183    4.47101200712366
C         3.73679841456005    3.31461970656984    3.11807390702785
C         4.60963506584103    4.37597591096063    2.75478123431894
H         4.56151171171176    4.71699048462386    1.73013299071761
C         5.44891292703283    4.97826622363232    3.65394748673346
C         5.48676061239954    4.51730197245421    4.98417247663763
H         6.14943543243862    4.99456128519002    5.69086132964107
C         4.69914516289703    3.47012669177241    5.36892826991683
H         4.73848940615643    3.10611371725573    6.38758745065447
C         2.82626805866277   -1.01446571567874    2.35244534770651
C         2.59661782898739   -0.06725495750733    0.43220248848380
H         2.33777050239015    0.62851078706944   -0.34268745457977
C         3.40581598761226   -1.83435581629621    1.42133832844919
H         3.89969823043316   -2.77741554027935    1.53027222545384
H         3.57064906939383   -1.57038469674954   -0.67605102325936

