70
CSD_code = IHIKUH | q = 1 | S = 0 | Stoichiometry = C27H39N2ORu(1+) | MND = 9
Ru        6.39419882137883   15.44478013443281    6.98200562422784
O         7.50667223346085   16.48085774707510    8.34754355160624
N         4.96692265255358   16.60746628832291    7.47733791095586
N         6.02865134977266   14.38375466236897    8.64141359143666
C         7.21228746845351   13.61069404225986    5.79734340770002
C         8.20961841924351   14.60113191347663    5.86220505261199
H         9.20962783335757   14.33601550135070    6.18810642301586
C         7.96087746890258   15.91048830154703    5.38651623941462
H         8.76580017326897   16.63472207610275    5.39971543373285
C         6.71258112345178   16.26138438989800    4.85102759547648
C         5.70713708465392   15.25452416715482    4.78591089329570
H         4.76232906790863   15.48299001890182    4.30163139373931
C         5.95279391486219   13.95147875032650    5.23550523266090
H         5.20839491333750   13.17757597085356    5.08601449453828
C         7.50966096878898   12.19343513258511    6.18491231982107
H         7.86632740912759   11.65124565458580    5.30747084273010
H         6.62132261784816   11.68352160983179    6.55316044009468
H         8.28534335921796   12.14393006818715    6.94671625874693
C         6.45409664362203   17.63968836476139    4.29006653364029
H         5.37027887305492   17.76077002840131    4.17486953826942
C         6.96714093796902   18.73029886259990    5.23514675017353
H         6.71580813821598   18.48923883431202    6.26957107098445
H         6.52062308040921   19.68644207689358    4.97621248102360
H         8.04602676524829   18.83601536457553    5.16023958758051
C         7.10130297080979   17.75905429550117    2.90583118564510
H         8.17846687602984   17.62516590854025    2.97250253481601
H         6.90228122560546   18.74279953914647    2.49005320632499
H         6.70159346753852   17.01020153817354    2.22549394286379
C         4.22107758765742   17.44010426461425    7.76229161811678
C         3.28729092044406   18.46000296204103    8.11747685629787
H         2.44642008358722   18.02464968782283    8.65725867123813
H         2.91824231214957   18.95629606934285    7.22012852435054
H         3.78052885422753   19.19447866050017    8.75458216381276
C         6.73789137253545   14.70356881050950    9.73656178547061
C         6.62177295041780   13.94805990961689   10.90231849615679
H         7.21543339919049   14.20614416753768   11.76359509248236
C         5.74390227060075   12.88446814314024   10.94852582237155
H         5.64207125282960   12.29306712336140   11.84462580720789
C         4.98800378042757   12.59244362669992    9.81843699190242
H         4.27942670288398   11.78086980769495    9.81296034805560
C         5.16381011415617   13.36764854429342    8.69218871513965
H         4.58517571244921   13.18546857843274    7.79377325239046
C         7.73857483855178   15.82039061561710    9.53368668025154
C         7.75905397493530   16.86986818454809   10.69099988569453
H         7.86308110370724   16.34134940447803   11.64289348316805
C         8.97912345419945   17.77714491644115   10.48607699991852
H         8.82785367782235   18.34074793663406    9.56399788774808
H         9.05220765847148   18.47675050446755   11.31663318520315
C        10.29180212974953   17.00745939788596   10.39265490437275
H        10.47360329854092   16.46733597605854   11.32503584158807
H        11.11090271353950   17.71429468085744   10.25178303077698
C        10.25270258566824   16.01870411365225    9.23376950858872
H        10.04091752486238   16.56955063982248    8.31141739548849
C         9.09916661158683   15.05497037062868    9.48195011978129
H         9.25826277391915   14.52209786019932   10.42031100066762
H         9.03593099801772   14.31712637722661    8.67504357689319
C         6.46186082433973   17.70740895096153   10.70885011919064
H         6.34535203900689   18.12679176551266    9.70300350525908
C         5.22007352991253   16.87200850410552   11.02863558071025
H         5.36554205350677   16.29724427844478   11.94043005397029
H         4.97340177224030   16.19198308199095   10.21597650375666
H         4.36483374342590   17.52705662986283   11.18127969075753
C         6.54360340914257   18.85089430326722   11.72309664503902
H         5.57180833008615   19.32920886149432   11.82196490378628
H         7.25367183874507   19.61226846680253   11.41810651006952
H         6.83196314950019   18.47239226919693   12.70089472473468
C        11.57156889253052   15.26737036746975    9.08938189931927
H        11.79656516970219   14.71484283630476    9.99899145197016
H        12.38432166828562   15.96508428602610    8.90503206240214
H        11.53273706434858   14.56151282226355    8.26205516678875

