27
CSD_code = IHIKEP | q = 0 | S = 0 | Stoichiometry = C9H13CoI2OSi | MND = 8
Co        4.03955721199481    4.46762587513058    2.93487251071923
I         3.05959343377992    2.49035605643315    1.60524008290068
I         2.23159997021511    4.56853723525325    4.75585900381560
Si        5.32354945996954    7.30140864021083    4.84699760244893
O         2.12698241283615    6.00657917060250    1.40872726588041
C         5.46968900845606    5.68063828244034    3.85616373254196
C         5.75791928484570    5.57795274943864    2.46892937777453
H         5.86966828662677    6.40783563370320    1.78808704770389
C         5.94639981840855    4.21692258150543    2.14576253354477
H         6.23657785888999    3.82366915164650    1.18248692560410
C         5.85077970468934    3.45890783971013    3.35375221565202
H         6.04772159961964    2.40153647255237    3.44658254048412
C         5.56951968136104    4.34895649261844    4.38995439164152
H         5.50192126222032    4.09979241944788    5.43776157687960
C         2.89118318540209    5.41051031959702    2.00564688679186
C         3.90279070105412    8.33431556858830    4.11251127357273
H         3.89140862109106    9.32987136151431    4.54509161488281
H         2.93494632164994    7.88359445601791    4.31476837702831
H         3.99691593235067    8.44976897111565    3.03527313673599
C         5.04592944734226    6.88547112996838    6.67923985324872
H         5.86160215662254    6.29566659738921    7.08900040541814
H         4.12237462327305    6.33538266040392    6.83623672279739
H         4.98193057782488    7.79767059556433    7.26419342029178
C         7.01052502988955    8.14450139523080    4.56403736424366
H         7.05648659912980    9.07415534468488    5.12094630512915
H         7.17857778861213    8.38151493823869    3.51768184904083
H         7.83525002184662    7.52165806099331    4.89799598323056

