38
CSD_code = IHILUG | q = 1 | S = 0 | Stoichiometry = C17H12N5PtS3(1+) | MND = 4
Pt        1.38683960730779    1.34641966680457    1.20954161512600
S         3.75716745006119    1.32798139824152    1.20572023083461
S         5.02212805118262    3.15160896701199    3.32249833889974
S         4.25043574810564    5.01400471606226    5.61972383779768
N         2.49195981029202    2.74288982421922    3.02673490471312
N         2.64042596821774    3.60811583313256    4.05664725232938
N         1.12223225764164    2.96454477827629    0.06329838510687
N        -0.53376160783336    1.36034101965358    1.19614751802399
N         1.08619420588886   -0.30244579048385    2.29050914164775
C         3.64491107036945    2.40501466632564    2.52669938958626
C         3.89081098712655    3.98257263590094    4.41084589912966
C         2.04646691625683    3.73962534580742   -0.49385979603007
C         1.72816143713934    4.87083381251184   -1.22877039787562
C         0.39320986789441    5.20844174012069   -1.39384708589974
C        -0.57608516639243    4.39967920659050   -0.82215413393963
C        -0.19441544319801    3.27663192239120   -0.09585063605498
C        -1.14519516241272    2.35400699583418    0.54017048522287
C        -2.53693647612403    2.39395962992775    0.53096245196310
C        -3.23253751186979    1.39768451540439    1.20638744032210
C        -2.55980458075986    0.38535001151359    1.88085355642415
C        -1.16749374339752    0.38730355667599    1.86196120522316
C        -0.23704145641152   -0.56060764891390    2.49018022934110
C        -0.64179825198225   -1.65780317443198    3.24283945221129
C         0.31072922771806   -2.50039012000406    3.79346073052974
C         1.65252683672306   -2.22489333846675    3.57627586713382
C         1.99481216110329   -1.11573714280948    2.81888152436113
H         1.82508038251037    3.94476667557759    4.54789774394835
H         3.07839014279179    3.44075776271829   -0.35256298688658
H         2.51353469015944    5.46857945336367   -1.66118463787114
H         0.11039867311163    6.08232625219775   -1.95907331243193
H        -1.62088573040010    4.63700822743311   -0.93780952330580
H        -3.07113883614434    3.17291336405247    0.01340428502511
H        -4.31099504096727    1.41048850595579    1.20707898718817
H        -3.11133469096663   -0.37929293887312    2.40157214153659
H        -1.69142297008679   -1.84975611554776    3.39379326710407
H         0.00991264509398   -3.35562332078288    4.37758445871405
H         2.42534669150426   -2.85645121017779    3.98245293653913
H         3.03267184073684   -0.87374968322660    2.62268923431484

