119
CSD_code = IHIMOB | q = 1 | S = 0 | Stoichiometry = C61H50N3O2P2Ru(1+) | MND = 6
Ru        3.98683050253632   21.67127595421680    8.34560415224788
P         1.85796781517298   22.65948364114306    8.45296845166421
P         6.11854964476057   20.59283156419977    8.06579385894443
N         4.95422430651086   16.37543505303800    9.36370377594899
N         4.23967628727677   22.48548429572937    6.47584238643498
N         4.90641525448654   23.46930643691397    8.80962465024398
O         4.73330415539368   18.89024690430382    9.23797479777861
H         5.02988510039483   17.95894240187212    9.51576987662676
O         3.46536930874452   20.85826483801993   11.17039536343253
C         3.73630065553250   18.70164330392414    8.33461360181356
C         3.14923174305477   19.84361581928621    7.76928616103623
C         2.09179773473424   19.62578433036305    6.89476565045068
H         1.55765756159780   20.47472738533230    6.47982928549214
C         1.65192637826518   18.35212233837725    6.52647373920850
C         2.30004818380440   17.25079297180339    7.04755211870541
H         1.99131693460214   16.25544208211520    6.76315660245990
C         3.34629960168359   17.40188006821426    7.96288167932686
C         4.03755758285722   16.24786636735323    8.48077209267821
H         3.75649652590692   15.28261996278160    8.04967561098849
C         0.48826108842992   18.19021332974011    5.59505378369838
H         0.30063886220254   19.10642467552432    5.03955682821344
H        -0.41107622411047   17.94734545260399    6.16116389707964
H         0.66565591334244   17.38006373269169    4.89119948136053
C         3.72561786470013   21.11349413417639   10.08182532061789
C         5.68215522138025   15.33677674644440    9.91674300671649
C         6.92254919851218   15.67344642359552   10.46483103469184
H         7.25439209141514   16.70010289421828   10.41243782301158
C         7.71009547536692   14.70325436545955   11.05029574526124
H         8.67188861999810   14.96931927517582   11.46296303717920
C         7.26459147498918   13.39215462172312   11.11967166359647
H         7.87783540256431   12.63567814008846   11.58465714180178
C         6.02304720504326   13.05714303992195   10.60358866344633
H         5.66664239892039   12.04020978711372   10.67303352083296
C         5.23293785986501   14.01780821474195   10.00333403970715
H         4.25550338973901   13.75428065193795    9.62679376725438
C         3.87769711817319   21.94767105575025    5.31242925548506
H         3.34651697651409   21.00665385418144    5.36519916946459
C         4.13071516954566   22.53365688211091    4.08677647619028
H         3.81538811347199   22.04247571853571    3.18081608232460
C         4.79671888877731   23.74993629822310    4.05282134714744
H         5.03200305044408   24.23071734473483    3.11671033720608
C         5.13985040429777   24.34038013262897    5.25293553087793
H         5.64498006008289   25.29143029662528    5.25972202246442
C         4.83759219906610   23.69782261776789    6.45416736679402
C         5.13254319393732   24.28338095961496    7.76097165512909
C         5.59605356435433   25.58736809344657    7.93819552430727
H         5.73626549733042   26.23854871254746    7.09167203699498
C         5.87137043014652   26.04421539406474    9.21140021984777
H         6.22565929924921   27.05032967264874    9.36899648094245
C         5.69320024171428   25.17489674886540   10.28038749381032
H         5.91976019851707   25.47839138455485   11.28911897408009
C         5.20594385065446   23.90766248511524   10.03270243017544
H         5.05813101364490   23.20912167106884   10.84576270313431
C         1.93847010720693   24.26813661877454    9.32386866160330
C         2.27386426259178   24.18591008117059   10.67629564133114
H         2.40590321435847   23.21164107729795   11.12911194557229
C         2.40112469258509   25.32896900311523   11.44034606376424
H         2.64898881004018   25.25115706261258   12.48819971820680
C         2.20501582651903   26.57323949078447   10.86146684238365
H         2.30764137434561   27.46912054043911   11.45423419668539
C         1.85865704552696   26.66188226855605    9.52485710755597
H         1.68337828185194   27.62757211619654    9.07462672219186
C         1.72089812165276   25.51721906105514    8.75628271284637
H         1.41614453216550   25.60906601675604    7.72463939928262
C         0.98407697615798   23.02681754216782    6.89136986377641
C         1.53317748618873   23.91761417207143    5.97013972915576
H         2.45653550615742   24.43387636486043    6.19662520245769
C         0.90256366241569   24.15876201320400    4.76301102662381
H         1.33629252961794   24.85838995820585    4.06357085576852
C        -0.27745346681703   23.50405852432325    4.45202884439106
H        -0.76862153281468   23.69266262063498    3.50995349734524
C        -0.82304213272370   22.60600269235066    5.35466053823726
H        -1.74095971858297   22.09020973300704    5.11636736124481
C        -0.19772985702499   22.36425525427956    6.56461535407667
H        -0.62811424302880   21.65739287453912    7.25932859564992
C         0.54428582755053   21.87385779777814    9.44111859896117
C        -0.55433221976108   22.64708616546783    9.81886152526529
H        -0.60838510805462   23.68582225340730    9.52112581016953
C        -1.57002403482480   22.08722616569193   10.56873163945029
H        -2.41636120513869   22.69047019092063   10.86057201371192
C        -1.50147482059238   20.75460803631726   10.94686221173341
H        -2.29412742864307   20.32119545392018   11.53734496724917
C        -0.41690180656273   19.98266025747368   10.56722486115850
H        -0.36153041635237   18.94475988377043   10.85849788363905
C         0.60548867795929   20.53707420772572    9.81538993678675
H         1.44869596194592   19.93194561375953    9.51247391320372
C         6.33996318255364   19.04856426649209    7.10219911719410
C         5.58568703009073   18.85722206861643    5.94854039907702
H         4.91319200036015   19.63267695009745    5.61457101428780
C         5.67176934301228   17.67510381743059    5.23593850553209
H         5.07685359389272   17.54305119816037    4.34438123861960
C         6.50701663831780   16.66133818319024    5.67276713487917
H         6.57014010644790   15.73499525944573    5.12258235604845
C         7.25470348951878   16.83940196307166    6.82422374193696
H         7.89924796089873   16.04952562233597    7.18007105424803
C         7.16918779673480   18.02099419317112    7.53834275410626
H         7.74372036077257   18.13217817716177    8.44461683466604
C         7.12753744292792   21.76476340103398    7.05673672778885
C         7.28621186920944   21.64127716267557    5.68039168661333
H         6.88051135078197   20.78411296787635    5.16279034546353
C         7.98238720216324   22.59974287519931    4.96419233245696
H         8.10292493982930   22.48484394675014    3.89709480341743
C         8.52877277863015   23.69581001418111    5.60973105800545
H         9.07356829031744   24.43986262010677    5.04884132162256
C         8.38882207007609   23.82276181613946    6.98227318275243
H         8.82689860145393   24.66507270285232    7.49753524742626
C         7.69169924840251   22.86769370978402    7.69764422006747
H         7.60320670672229   22.96086970560876    8.77354675877487
C         7.29963544754151   20.38968814258365    9.44032531385388
C         8.66189538218008   20.29554006493104    9.15078441336680
H         9.00072859542080   20.35260646690575    8.12500863053675
C         9.57964064974618   20.12445867779259   10.16944272233601
H        10.63085242484664   20.04794393086228    9.93504685688750
C         9.15349260714508   20.05041190040233   11.48704089906383
H         9.87312621509272   19.91707999241828   12.28033465083041
C         7.80428805959747   20.14580618474752   11.78014154412225
H         7.46671453681167   20.08543098460605   12.80391519385735
C         6.88112853606789   20.31390698875157   10.76134819841197
H         5.82985024700355   20.36956240512838   10.98847878417481

