48
CSD_code = IHIRIA | q = 0 | S = 0 | Stoichiometry = C18H25FeNO2Si | MND = 8
Fe        8.50651991819481    2.87527272650531   14.41177501149848
Si       10.05455731020030    3.04404701375226   15.99034603799993
O        11.38500026405150    3.44126566348597   14.94090291389862
O         7.24253318042084    5.31179655805954   15.30402072357569
N         9.84666764707334    3.80149690776811   13.31381020311490
C        10.05370370590550    4.51838778015519   17.22760864075575
H        11.03233683723537    4.65569675360426   17.67758120419403
H         9.34346181364983    4.33705342420575   18.02566610453725
H         9.77404792102847    5.44815222780241   16.74414212134952
C        10.91604781845523    1.64590426410729   16.97895180971436
H        11.09623256170775    0.75518962123725   16.39115326676430
H        10.31213402901428    1.37348805770399   17.83588985340681
H        11.87589249184806    1.99483319227948   17.34703880413304
C        11.11730181715740    3.87946116881416   13.74620980078627
C        12.12878609766024    4.40666523750892   12.93436261259366
H        13.13411842428531    4.43636192604846   13.32129553758319
C        11.81333121897598    4.87553556657450   11.67784576222822
H        12.58050361004857    5.28479655209681   11.03846371950923
C        10.48838460575958    4.82551320884001   11.25504846060315
H        10.19638854548023    5.20012761442164   10.28768203313853
C         9.55013008356046    4.28670446130366   12.10682566865436
H         8.50463704793437    4.24153555225166   11.84151072662696
C         7.78611745016712    4.35207838332284   14.96493676733562
C         8.64743692489998    0.73368303981619   14.05386148044460
C         8.18573826422295    1.34135330467786   12.85281715699242
C         6.96432150030081    2.01274297108863   13.12003674699928
C         6.65721567614781    1.80544336020663   14.49972695884430
C         7.68816055361534    1.00774044271076   15.07780620283898
C         9.78150802220441   -0.24343737864849   14.10287681680234
H         9.60671147125420   -1.05476976878924   13.39371155893872
H         9.87826740840610   -0.67636743599566   15.09398874488138
H        10.72556051091374    0.23221984178018   13.84001108045555
C         8.84932774343026    1.16303811983322   11.52433520448386
H         9.93158242093244    1.23656121763646   11.61931567848172
H         8.51846024920015    1.90737455140639   10.80435157858494
H         8.61413188547899    0.17499981211009   11.12300284549650
C         6.04761391695666    2.65298058969021   12.12385545270561
H         5.21004441188411    1.98918710200006   11.90060169789093
H         6.56420625986221    2.86614625795468   11.19083360830098
H         5.64334517912897    3.58512672150289   12.51368489077841
C         5.37655578554178    2.18984836930508   15.17168494929114
H         4.96674937229955    3.09717414321005   14.73604825236272
H         5.53509096623210    2.36011027067338   16.23320748593198
H         4.63930625177366    1.39262903238387   15.05819408621844
C         7.62288354529287    0.39597213969939   16.44133712881241
H         7.28822278000954    1.12614541625489   17.17370216247712
H         8.59446776921848    0.02741218849573   16.75171181368474
H         6.91775673097577   -0.43757817084574   16.44262863330244

