125
CSD_code = IHIRIC | q = 1 | S = 0 | Stoichiometry = C67H49CuN5OP2(1+) | MND = 4
Cu      -13.36064134146561    5.29060428694939   15.61109395242296
P       -15.09740928541654    4.83339475858220   17.10952212857319
P       -11.48413746792368    4.05909636561543   15.88559635402624
O       -13.30938079298586    2.90900790359289   17.42066078238634
N       -16.46403619603024    5.53940185355200   12.76132896962171
N       -14.63872214993163    5.43189777170319   14.00720235042776
N       -13.34028796552125    7.36891954607163   15.37962509083684
N       -16.06364654457100    6.77757065923874   13.05667167990907
N       -19.32988971896522   11.03182239886318   11.55934693454626
C       -14.61806027781593    5.43591462917357   18.76253003124099
C       -12.21963206841005    2.98078862088403   18.23668643732201
C       -15.61098850796921    3.15419635968612   17.61232217376515
C       -14.94362759620083    6.71073246566122   13.81272734203619
C       -11.56377429578112    2.47550951043282   14.98944440304956
C        -8.75426965094797    3.86297071740023   15.23602045152866
H        -8.82277473486536    2.83453447330247   15.56309668961582
C       -14.09811630166827    7.75842056753380   14.34367257433645
C       -13.32264188177335    5.90435891837878   18.94354827533683
H       -12.65619017113024    5.94759205392532   18.08873917578652
C        -9.95552888998733    3.79746001935353   18.31481316639851
H        -9.10998006193180    4.27035980969040   17.83718974553234
C       -17.49077888536377    7.85038008000470   11.44487978952933
H       -17.32131513413126    7.01556990362877   10.78355142678007
C       -11.30416158373066    1.23527267579179   15.55711045004535
H       -11.02408969821113    1.15899737734046   16.59898991964263
C       -16.64911356734930    5.69723692351775   16.74693832232455
C       -14.00346999612401    9.04163876839204   13.80578814797896
H       -14.58639355725456    9.31492521459985   12.94093233523674
C        -9.80091778533378    5.99422425401285   14.84006445062243
H       -10.69010613720904    6.61160459671026   14.86137453933879
C       -12.51474197409298    8.24166657918280   15.93756652339439
H       -11.93684142081083    7.87962857557681   16.77704741807219
C       -16.84967435832777    7.00492514497347   17.18179435657596
H       -16.15005794129922    7.44929509402583   17.87790622520957
C       -12.38443852405369    9.54455837944677   15.48969011158046
H       -11.70618577325131   10.22413465386424   15.97893679133614
C        -9.88065307984677    4.68023663071622   15.28507121712096
C       -11.91762475742066    2.56383195133800   13.64554382943312
H       -12.12699472424940    3.53815191145706   13.22086361795110
C       -17.02439225166720    1.34380011292150   18.27444178663991
H       -18.01084362606801    0.95373980146808   18.47268550524854
C       -14.49921573612943    2.32382329227428   17.78713518286318
C       -13.13454344098934    9.94416306988882   14.39070674101602
H       -13.03972919683959   10.94309383621243   13.99399575664635
C       -15.00402819722782    2.53293007247233   14.27937373649624
H       -14.35736147578453    3.03323947799503   14.98645207329192
C       -18.30416025876796    8.89754903376754   11.06972334670824
H       -18.76030281675684    8.90349560522737   10.09261485189979
C       -14.63995713651163    1.01163293288798   18.19645727167200
H       -13.77302921423881    0.37841415764079   18.31324298536229
C       -18.61530672215629    5.86601055670922   15.36903363424111
H       -19.29259419166998    5.42722631892733   14.65199694931588
C       -15.60029424681993    4.73639851574330   13.35386059374391
C       -18.51846372133831    9.97261648530232   11.93651361558286
C       -19.02842034374788   12.37910100740770   11.71015839363375
C        -8.60133176789193    6.49739619064390   14.36836785041611
H        -8.54120763002585    7.51937998527055   14.02427272590992
C       -17.53082774291015    5.13830471789117   15.82218857503132
H       -17.35868048306531    4.13386956581237   15.45755684291577
C       -12.89292113716133    6.29482209158144   20.19895294418452
H       -11.88229677951954    6.64871440921394   20.33863298933353
C       -11.11488916261243    3.55971768004152   17.59495005352018
C       -11.75289009882940    0.18436945957159   13.44352489393811
H       -11.82796143665162   -0.71032367149293   12.84455408859324
C       -20.56941196631427   10.93169126763382   10.93946126054434
C       -15.05813277438358    5.76548802832639   21.09683757898127
H       -15.73266896525048    5.71412726113028   21.93831472311461
C       -17.08731481559031    8.92207017208417   13.56858565255836
H       -16.64499395456083    8.90488703876091   14.55329446435996
C       -18.82370634763961    7.15838890159335   15.82404189878454
H       -19.66864809152185    7.72708472293656   15.46657546835271
C       -17.90731323482657    9.96428315863990   13.19403360887479
H       -18.10907707317497   10.76578094690029   13.88710242307907
C       -16.88059253597087    2.65750775657482   17.85590394563793
H       -17.74849717426284    3.28819851987787   17.73181951981352
C       -13.76135535987680    6.22413464824869   21.27546107202538
H       -13.42882254401531    6.52632570534360   22.25680033723488
C       -16.86387284026466    7.86977501672837   12.68601820998831
C        -9.88998710040358    3.42030549044754   19.64738559534751
H        -8.98342808559833    3.59060400299437   20.20686649445884
C       -15.70574446241720    3.29020568013889   13.34460970695070
C       -17.94183805047019    7.72424300668402   16.73181985647681
H       -18.10379237927578    8.73224590223833   17.08527735222512
C       -12.00816180848705    1.42218985908811   12.87414037986229
H       -12.28328980354755    1.49298645649687   11.83266021434225
C       -12.16228798772689    2.61846380673239   19.56918892479047
H       -13.02499058166941    2.19500804554789   20.06121615378721
C       -21.07123940507265   12.22768907274634   10.69389292027872
C       -11.40178275670971    0.09357145293135   14.77999846408293
H       -11.19933749020421   -0.87172465513092   15.22042982327143
C       -15.48855436705493    5.36489099391004   19.84601621398278
H       -16.49564742087015    4.99761628899853   19.70295093088544
C       -15.91708473239731    0.52963411730331   18.44349824248561
H       -16.04482897627594   -0.49156738409358   18.76753661733101
C       -21.32135801985424    9.80595401344749   10.64076214412822
H       -20.96857417075856    8.81222511650033   10.87194927260874
C       -20.08265802812128   13.15310584960562   11.17899289968856
C       -15.13972223394113    1.15887498885663   14.30171869776360
H       -14.59633228929635    0.58022307719624   15.03364113528238
C       -17.88221393720320   12.98032993855443   12.20665280595749
H       -17.04955894131360   12.39621883130039   12.56967777335917
C       -18.87287473506186   15.13311648281363   11.71233799629408
H       -18.79151211286857   16.20899955727323   11.73116507007263
C       -15.96870485625745    0.52940621533239   13.38755744024014
H       -16.07162647219971   -0.54496807061867   13.40304170005217
C       -16.54746610279085    2.65459318417586   12.43294059956240
H       -17.09275436184101    3.25194564170822   11.71926493825427
C        -7.47944993146627    5.68615046549379   14.33463039770409
H        -6.54283409552014    6.07665965614957   13.96694441193986
C        -7.55803521435692    4.36993297184738   14.76488612580902
H        -6.68348134688498    3.73789630323645   14.72856987706997
C       -20.00358035934585   14.53862795936347   11.18711983129446
H       -20.80776447588605   15.13405275706500   10.78390778829632
C       -22.31536522635105   12.39336768929724   10.10120998561776
H       -22.70146197205819   13.38215027372082    9.90839640625757
C       -17.82423427340814   14.36234717021004   12.20503128586737
H       -16.94298441394838   14.85302136450329   12.59044907921185
C       -22.55821603434722    9.99402479814300   10.05083891433315
H       -23.15983256843376    9.13224952711339    9.80413424488777
C       -10.98260796282931    2.83651437839389   20.26562249084535
H       -10.92607742974945    2.55574312461395   21.30584175986551
C       -23.04584592999531   11.26786098122462    9.77386861522428
H       -24.01381669749778   11.37299981275581    9.30857831114042
C       -16.67057218267657    1.27894547998293   12.45525459766872
H       -17.31793692372344    0.78640806872293   11.74569378142146

