108
CSD_code = IHIROI | q = 1 | S = 0 | Stoichiometry = C56H44CuN4OP2(1+) | MND = 4
Cu        2.51787388510651    4.62812894525969    5.58305009759893
P         0.42010080529197    3.65825822845774    5.20287098579289
P         4.22940276129610    3.65493240819503    4.49645046887294
O         2.39362028122697    1.74076543877115    4.68101162961545
N         1.01635105090379    8.07489469911206    6.88664887945208
N         1.00144560587739    8.53337266554141    5.63386283300760
N         2.08429273393820    6.60602386988752    5.68746301606927
N         2.30250939359320    4.78189672315291    7.69015604339971
C         5.21828439096152    2.31097457295158    5.23192418277766
C         2.62703994287406    3.88783575347860    8.61387241668625
C        -0.25420503579107    3.69609736183040    3.50562809432141
C         3.69795125890865    3.26016127359298    1.69384974812074
H         4.44140214399071    4.00258752250534    1.44369772084447
C         5.42365753412405    1.07435715388471    4.63514978517023
H         4.96566182868141    0.84563760111175    3.68291434744685
C         2.02385919724513    6.04411466078223    8.04106380525328
C         2.70796418063279    4.24224305321317    9.95992392574514
H         2.96406244478389    3.49697276898405   10.69601013763755
C         2.50813281456082    1.96498774101109    3.33549615975608
C         1.68341174496806    6.89954996580227    6.92005122870671
C         6.81714905000227    0.42380439124650    6.48113042769397
H         7.44043477822031   -0.31291558242817    6.96455718502371
C         0.19624281419079    1.88238547822550    5.56504450894452
C         6.22117563554934    0.13461328888431    5.26492078014990
H         6.38326089619941   -0.82685224067148    4.80049559358689
C         1.88181224322574    7.76721472024546    3.49271474793748
C        -0.88804430274458    4.46193872233983    6.17058293887484
C         5.60360817101444    4.67239694550202    3.86711239273299
C         1.64849215937750    7.63474865183609    4.91768481004467
C         3.49962359718013    2.90263083408433    3.01786490216669
C         1.75162732415681    1.36316596702590    2.34750681918516
H         0.98942334688655    0.64224561516647    2.60416092413253
C         1.27833040713471    1.08791143154838    5.17663432863989
C         2.75009401921895    6.90451982718204    2.82584236391182
H         3.25776368280092    6.12438874854493    3.37753509157856
C         0.33122754583471    8.78997167661262    7.88772325026828
C         2.12408015902008    6.48075108576620    9.35790643408337
H         1.95040914409362    7.51278307048048    9.61463032663999
C        -1.35028646137892    2.93036552484475    3.11890927629015
H        -1.85250655564228    2.29746645703809    3.83695411841188
C         6.56471187944281    4.14882259218296    3.00688147809757
H         6.49490153217029    3.11820239061357    2.68669158849399
C         2.47310147739639    5.55510175968622   10.32847670274794
H         2.56034088883854    5.85959384425078   11.36002370983245
C        -1.90899432854165    4.86689904711457    8.31071832372809
H        -2.00438735282882    4.63132673836596    9.36108056487191
C         5.81829009578722    2.60006164113608    6.45432302657590
H         5.65182950262854    3.57129855355559    6.90464362434542
C        -2.56399575968397    6.16914671089277    6.40261718639446
H        -3.16683724143999    6.95147937333919    5.96686532086767
C         1.26323901408022   -0.28332720613483    5.36049469683879
H         2.11646199573791   -0.87272008266063    5.06075995894443
C         2.93924967609068    2.66090794486281    0.70136872596701
H         3.09640506051760    2.93269181827697   -0.33076585972086
C         6.61762454221177    1.66006436923679    7.07568977293089
H         7.08804252004995    1.88816460077051    8.02081454884931
C         1.23716930388138    8.77967732119455    2.78246145761271
H         0.57093019794774    9.44328073826022    3.31060287697395
C        -0.93454080185559   -0.09604427653709    6.31686824357764
H        -1.80139542571496   -0.56367905566196    6.75829543119205
C        -0.91429994358215    1.27713939881049    6.13937923718911
H        -1.75890526202709    1.87718555853507    6.44688806508237
C        -0.99454952472129    4.18279928945537    7.53225938652655
H        -0.36296433217186    3.42130146895256    7.97154726077067
C        -0.29465878917376   10.90105519163540    8.82632598514237
H        -0.24612443934172   11.97854768290553    8.81791441578956
C         5.71636784000198    5.98330384672555    4.31629966132282
H         4.97851534835300    6.37027059051271    5.00932271157104
C         0.39294771052250   10.17755608028526    7.86899059335562
H         0.97388187380709   10.66907740976016    7.10468934613244
C        -1.65957874923818    5.47874085556843    5.61576680118734
H        -1.55418359148321    5.71957655365263    4.56638889934208
C         0.14647571420802   -0.87254052925848    5.93155031346307
H         0.12149080400344   -1.94146789230116    6.07514870351885
C         1.97821979654824    1.71896145471206    1.02679785612746
H         1.39006575139620    1.25737576567879    0.24908817562851
C         1.45706364282802    8.91941160343888    1.42611782326178
H         0.95501997007584    9.70232860652553    0.87849957740588
C         0.38365618784648    4.50727948898405    2.57524266017701
H         1.23724981539338    5.09432368784084    2.88322586456279
C        -2.69980203666737    5.85675142608188    7.74545644880766
H        -3.41329082739338    6.39097150983576    8.35409190075194
C         2.87724278221811    2.48770644195418    8.16494456448000
H         2.94294226373927    2.44927132894513    7.07971555711153
H         2.06246625853173    1.84078757783952    8.49045613749792
H         3.79928179038341    2.10352103164486    8.59518156882719
C        -1.04476374743011   10.24561013308067    9.78917033049155
H        -1.57988969982145   10.81248610722020   10.53478463580070
C         2.96966460982026    7.05554161797876    1.46994402041419
H         3.64952442219527    6.38941327337457    0.96051048902988
C         2.32261233112188    8.05931037760697    0.76752210863358
H         2.49534418202102    8.17411471082388   -0.29189421283689
C         7.60543292018135    4.94823638874460    2.57312620779926
H         8.34828347139160    4.54540902130023    1.90100760390282
C        -1.15260652863038    3.79215644114861    0.88484068025021
H        -1.50390089290979    3.82393132588471   -0.13522987077369
C        -0.06590988730842    4.55925991933302    1.26893113834946
H         0.43610144627604    5.19617780246097    0.55616964423765
C         6.76108122580368    6.77866037581160    3.88072807500677
H         6.84420738007393    7.79837800715443    4.22577196837218
C         7.70061193778842    6.26320116529653    3.00344283733850
H         8.51478367062967    6.88323384349650    2.66040042855986
C        -1.79292279989819    2.98210341955506    1.81040426357728
H        -2.64269108539747    2.38748613092877    1.50993820024579
C        -1.11800520558450    8.86170978543110    9.78861733369106
H        -1.71435600596134    8.35015427401532   10.52821759079007
C        -0.43533522625918    8.12600427313123    8.83717983733200
H        -0.50647996634778    7.04931033366829    8.81830906921297

