50
CSD_code = IHIREW | q = 0 | S = 0 | Stoichiometry = C19H25FeNO3Si | MND = 8
Fe        5.14175289163003    4.23177473741670   14.29009272840715
Si        3.76317461944828    3.66565224794255   15.96046134944335
O         3.08409129108782    2.14387574730531   15.64313337410466
O         3.04962298799920    5.56055196219975   12.81026554674233
O         5.44882199705816    6.76836938788278   15.62922764364853
N         2.27591009158741    2.89200302121544   13.66408067104410
C         2.27730360070895    4.81205731178176   16.36678843387227
H         1.66280884284651    4.97067050457402   15.48777307242213
H         2.61893991743969    5.78101563281563   16.71150604507362
H         1.64832615768905    4.38276677362108   17.14141043561399
C         4.63061444265639    3.25382476786277   17.62070841172155
H         3.90464788495553    3.12863250605149   18.41689455578648
H         5.29246408342476    4.06453535954115   17.90030766782745
H         5.21368950690427    2.34325139221454   17.56388711369842
C         2.37472221138386    1.91672008084534   14.55634882970216
C         1.76338692871744    0.67017461694976   14.36675371447499
H         1.87123739323013   -0.09223691957150   15.12176753218552
C         1.03316682914743    0.46495829514588   13.21586440837409
H         0.54629204244344   -0.48376354379715   13.04135463111093
C         0.92829144617542    1.49345026497802   12.28553074044583
H         0.36200084900349    1.36832163063970   11.37668071417183
C         1.57040301489837    2.68449247310665   12.56431021434236
H         1.52617525497406    3.52547064067011   11.88437470992150
C         3.81257394415854    4.95804714040979   13.41986094548267
C         5.33542154703862    5.74113382113813   15.12186230825973
C         6.19651336503337    2.19808955102064   14.32769879783832
C         5.65815037596737    2.44933981136895   13.03961763891153
C         6.26579821191872    3.64283716586035   12.52421397746690
C         7.16261198462074    4.13704067689121   13.50841683691868
C         7.07747385455429    3.27575799953745   14.65006611107211
C         6.02162552981771    0.92714340311303   15.09601904823145
H         6.40391298108384    0.09188589535462   14.50639786936143
H         4.97451311823407    0.73480392791935   15.31539461538008
H         6.56993705379402    0.96085167843590   16.03315500520662
C         4.85105256779274    1.47875566827853   12.23599831042273
H         5.51348805173434    0.86484382139792   11.62126977399049
H         4.15733687843865    1.99402758346138   11.57564294795324
H         4.27822837481446    0.81968174235920   12.88358733936936
C         6.13875281839495    4.13211604819560   11.11495839267449
H         6.31711162000484    5.20282258187268   11.05503800892000
H         5.14528567562624    3.92808118791815   10.72348939648608
H         6.86718124375010    3.62707154468820   10.47738198922788
C         8.14492079908862    5.25290271039866   13.32871487074653
H         9.09169681296124    4.85830050853150   12.95479858744961
H         8.33722475074536    5.76032612257689   14.27058034661309
H         7.77556558847817    5.98582827200326   12.61624019207293
C         7.99023777792464    3.33475406046777   15.83685501649984
H         7.51569247774397    2.90906269871151   16.71643950513822
H         8.25999726240170    4.36291648455482   16.06407650827212
H         8.90805104846459    2.77880900214288   15.63490311589941

