145
CSD_code = IHITOK | q = 0 | S = 0 | Stoichiometry = C52H72FeN18Se2 | MND = 6
Se        6.85165687271171    8.57685947983263    3.12062124127228
Fe       10.78583666853159    6.36803764466700    4.33734668906941
N         9.50158166716195    7.67764945378556    3.85235287868611
C         8.43591568178891    8.05047332202946    3.54877005016823
N        11.40203752373641    6.39681895687498    2.49756371525543
C         8.20319208985106    5.05962955693510    4.29570242144921
H         7.99389052471983    5.83610038134208    5.01475029851407
N         9.45481564431277    5.02054040608902    3.82383888602570
C         7.20775988098552    4.19481538812356    3.89347570597352
H         6.21309208906799    4.29549205003620    4.29495014075182
N        11.02958904799534    4.08444588924625    2.36243185707842
C         7.50921940261269    3.21799817742575    2.95691983902149
H         6.75289521955414    2.53608107038629    2.59997583363065
N        13.06914742084455    3.11782478954899    2.00240397128620
C         8.79760280506672    3.16445753845252    2.45749174813330
H         9.08702278511778    2.43795644431338    1.71875149981650
N        11.19934147711873    1.77607534446218    2.51628281479659
C         9.73552659216940    4.08240998268928    2.91112601599759
N        13.32206584474281    0.77539754949878    2.19683495451413
C        11.51600912806158    5.27100302512463    1.79086353659168
N        15.11642073806316    2.13112502418513    1.71756310303416
C        12.04064105798066    5.24766567576142    0.50236527951256
H        12.09578731209216    4.31297011894856   -0.03040241783349
N        11.46638987477086   -0.50620951679142    2.58907974205312
C        12.47726567935232    6.42914993898409   -0.06569653416353
H        12.89675004569375    6.43621400960014   -1.05974190481599
C        12.33621619548284    7.60425834030647    0.66148732303293
H        12.64416687829197    8.55309501835866    0.25392135899005
C        11.78527770864013    7.54206519330030    1.92440451290575
H        11.64446402620930    8.42514689231831    2.52728504113849
C        11.79110952307166    2.93387303805825    2.28848929570054
C        12.01312697171254    0.71071857520352    2.43125811078986
C        13.80930430898837    1.99840997446957    1.98305812822297
C        15.97921035543341    0.97633668202300    1.61197529404799
H        16.62845909700323    1.11011410207567    0.74170055458016
H        15.34392860644871    0.10311869675288    1.45637873719094
C        16.83378820827613    0.76835008432056    2.86700334360423
H        17.60323667502571    0.02645412573109    2.64517863541911
H        17.33665603049203    1.70356478183214    3.12141175434272
C        15.99416376827642    0.30194957728339    4.04802040912785
H        15.16523089807629    0.98613106906473    4.20817446669960
H        16.59546192884462    0.25407387559097    4.95322799257151
H        15.58293410425721   -0.68558307361369    3.85336739847908
C        15.65656930859815    3.43213292824371    1.39219331327809
H        16.70165905094748    3.46264609435138    1.70996680739338
H        15.08668724254328    4.17975951077117    1.94597005499881
C        15.55674440004425    3.74667120987233   -0.10330517812182
H        14.51116630837919    3.66230737176460   -0.40173413343040
H        16.13194253707429    3.01504951099617   -0.67550199145249
C        16.06709383268584    5.14970387932505   -0.40115261933027
H        15.48909695895122    5.88723844850971    0.15087308997538
H        15.98492337872421    5.36879076841943   -1.46284941223441
H        17.11129333402436    5.24618309076740   -0.11243013472188
C        10.03635772501042   -0.64116138749105    2.73391959412913
H         9.68055254720294    0.22311157276822    3.29928724130706
H         9.83219916545680   -1.54705480171864    3.30989019745178
C         9.29517717462796   -0.70622623422725    1.39486148070643
H         9.60951526211084   -1.59284226616988    0.84117359001092
H         9.56517672924588    0.17059514316453    0.80408426060057
C         7.78828717896756   -0.74871373946399    1.60803921945487
H         7.50649394410564   -1.64097412092120    2.16287267761581
H         7.26700653513864   -0.75931495318963    0.65400663609399
H         7.46188200801034    0.11967868899326    2.17371903777082
C        12.30476889647911   -1.67420966947824    2.44413320614044
H        11.78722196840920   -2.52277112925403    2.89849123676843
H        13.23300410582379   -1.48510361215626    2.99080792254757
C        12.65745177000223   -2.00013907508656    0.98931991684453
H        13.10848472638179   -1.11416872980752    0.54163258297130
H        11.75022799882299   -2.23767494168240    0.43182472810428
C        13.62736147498724   -3.17158224141490    0.91050244410097
H        14.54905546967487   -2.93963979930589    1.43918980827461
H        13.87243086827589   -3.39359302552777   -0.12491663799221
H        13.19052768543343   -4.06235930171398    1.35735480871713
Se       14.71436066777234    8.58926215286274    5.55759636275912
N        12.07000431908293    7.67722152884881    4.82170311640340
C        13.13335157797730    8.05430215546473    5.12807850473872
N        10.16979099549722    6.39702658824038    6.17699347507298
C        13.36828661115008    5.05992890400087    4.37967924446517
H        13.57786368045167    5.83685134708823    3.66119252762928
N        12.11649219319954    5.02075378819461    4.85112401244656
C        14.36347219116277    4.19478161696505    4.78179261051930
H        15.35827539097174    4.29542700552580    4.38063021097974
N        10.54127598672054    4.08449577007251    6.31197426549398
C        14.06160597362224    3.21760105475740    5.71786016354304
H        14.81772140614355    2.53544725973869    6.07478944722062
N         8.50158775343740    3.11803729019125    6.67205836448954
C        12.77309445572049    3.16406253383321    6.21694492823047
H        12.48340529999925    2.43731241005018    6.95533056576083
N        10.37120553727266    1.77618499464946    6.15775890888651
C        11.83540642293565    4.08232146064014    5.76344176303987
N         8.24846911299353    0.77564051080842    6.47742884721277
C        10.05517195920782    5.27117962861776    6.88357719301988
N         6.45421208497586    2.13140716868868    6.95674294256297
C         9.53028499615786    5.24799630139005    8.17196114857955
H         9.47450167365053    4.31327977052293    8.70461929908708
N        10.10396523988982   -0.50609782438556    6.08487240475199
C         9.09422828473155    6.42967283309678    8.74008072766281
H         8.67457821204157    6.43685455644343    9.73405340248744
C         9.23606881067219    7.60479155389779    8.01307664011505
H         8.92864787233809    8.55376539678277    8.42071802932012
C         9.78710150663380    7.54242385760652    6.75021128798419
H         9.92848186617167    8.42548835794022    6.14743449238444
C         9.77957889247950    2.93401542764882    6.38581989266667
C         9.55736410759707    0.71087646857928    6.24283599864718
C         7.76132713524329    1.99867349260529    6.69128810741668
C         5.59142829181232    0.97661176060825    7.06244418228139
H         4.94197725470530    1.11067749493743    7.93251968384281
H         6.22665783509557    0.10343296158617    7.21848455745316
C         4.73712723813734    0.76821077020736    5.80728720720670
H         3.96696144917791    0.02717225200823    6.02950609206654
H         4.23515563278385    1.70363373764390    5.55188373602939
C         5.57669354988909    0.29998963111591    4.62693909396391
H         6.40639594956131    0.98316183177715    4.46646430961671
H         4.97564080177966    0.25196292780114    3.72157578289041
H         5.98681306167772   -0.68782101077839    4.82254467073794
C         5.91409991606492    3.43239557501507    7.28225625082537
H         4.86895017718160    3.46289136792414    6.96467892735881
H         6.48385912851375    4.18005636612216    6.72840639676480
C         6.01423646118966    3.74691935570024    8.77773722414556
H         7.05980839699394    3.66203395057736    9.07604388909798
H         5.43873399255960    3.01561838680188    9.35003905144978
C         5.50465747040711    5.15023613183476    9.07556286963339
H         6.08303102107629    5.88743170686141    8.52347887876574
H         5.58699510708302    5.36931845248447   10.13724813165039
H         4.46050182239371    5.24727508427204    8.78687401471799
C        11.53395295084026   -0.64116938419467    5.93976218750212
H        11.88969773903804    0.22299550269680    5.37418967432367
H        11.73791399916639   -1.54716410247903    5.36388315711872
C        12.27544560621565   -0.70608902362247    7.27865287195733
H        11.96126388302738   -1.59264918593084    7.83251668419138
H        12.00557307037194    0.17079101476757    7.86940024127399
C        13.78227924566973   -0.74858394152972    7.06508957340751
H        14.06397654645579   -1.64111368131316    6.51064026097332
H        14.30382626001350   -0.75866040058691    8.01898154429461
H        14.10845595633844    0.11953688278080    6.49886373342687
C         9.26556893038954   -1.67403817189448    6.23024306351683
H         9.78291336045377   -2.52267808602689    5.77579960604412
H         8.33715079640152   -1.48494891356973    5.68387933413349
C         8.91342250029161   -1.99976450733294    7.68523311212193
H         8.46222300165182   -1.11384541926582    8.13285624284302
H         9.82090017195716   -2.23684633994140    8.24250741418195
C         7.94396512528824   -3.17153978458254    7.76465435553431
H         7.02203613640017   -2.94010244898405    7.23615754957984
H         7.69927020663408   -3.39333470286869    8.80020928856692
H         8.38100979267403   -4.06228724597475    7.31794879829717

