105
CSD_code = IHITAW | q = 0 | S = 0 | Stoichiometry = C40H44Cl2FeN16S2 | MND = 6
Fe        0.00041763919102    0.00029129101012   -0.00051561313590
Cl       -4.31013552949387    2.65418565200308    4.62587257589110
S        -3.08352202102612    3.44017343743614    0.05710428034415
N        -1.27702725345288    1.37085399083342    0.29039473948143
C        -2.04674537242780    2.24788595971697    0.17317497591003
N        -0.36874985967405   -0.78041885797920    1.77026159667137
C        -0.65570804917458   -2.07796022430866    1.91743628781444
H        -0.53474454396688   -2.68783602271202    1.03529437498382
N         1.39384083268794    1.04864768405963    0.87200277227577
C        -1.06888184550248   -2.63221490855890    3.11129307476558
H        -1.29048181648364   -3.68565425983241    3.16650650624868
N        -0.02391632279925    1.33290580871639    2.73424381437566
C        -1.19334962801658   -1.81037244291706    4.22351957869667
H        -1.52844269853981   -2.20173204043575    5.17109894160475
N        -2.04675018432283    1.99477549634740    3.61284869148489
C        -0.85042433805176   -0.47683137989226    4.09607998479874
H        -0.90628789443535    0.20175293049052    4.92982173590291
N        -0.55820113522196    3.57001603714940    2.67822670468242
C        -0.43386438173321   -0.00563600569931    2.85616143528612
N        -2.67393534705495    4.25488365355262    3.47005106270377
C         1.17607398626867    1.61927112799569    2.06050298081041
N        -1.29154736095468    5.74490499627872    2.39692828457325
C         2.10301370199300    2.44780692926607    2.68078940017693
H         1.87017195183590    2.86639884578318    3.64610754335134
C         3.30643365121692    2.70318015929215    2.04806229129607
H         4.03959510634144    3.35134962597596    2.50163350756651
C         3.55329173995760    2.07786356587491    0.83293056500887
H         4.48800183303716    2.21663743979715    0.31438874431673
C         2.58170933357617    1.26037337913314    0.29329717793804
H         2.74847878057025    0.73490480690305   -0.63483202573961
C        -0.90377386901361    2.34851077836591    3.02361680419626
C        -2.85696505040962    3.01436130634246    3.81364943625333
C        -1.50427666477617    4.51039858376443    2.84235581193709
C        -0.06828935497722    6.10989301407742    1.69235783333341
H        -0.20713543998809    7.14540182008483    1.37178133457747
C         0.15502433970327    5.25533028466419    0.44540933609123
H         0.38053104159661    4.23283663353241    0.73216802125911
H         0.98429518144083    5.65910119983950   -0.13119538962543
H        -0.73929233258991    5.25178527629671   -0.17225166073997
C         1.13765189216899    6.05487256607083    2.62908780991925
H         0.97563180271399    6.69083792061233    3.49608886187471
H         2.02634799954913    6.39768108019292    2.10508288919614
H         1.29500194043653    5.03472277537425    2.96049168433771
C        -2.35347562117580    6.73957219191092    2.52256816043673
H        -3.15165474246505    6.23985271196181    3.07575579557608
C        -1.88473823801010    7.94902861950288    3.32966222742466
H        -1.11900233706542    8.51560571031028    2.80464586733690
H        -1.48805403860280    7.62983064550405    4.29037665802339
H        -2.72972212787062    8.60813605471691    3.50926251197816
C        -2.89804829935955    7.13832725107811    1.15251924322045
H        -3.78045602153554    7.75916002810310    1.28118398595789
H        -3.18174612426115    6.24822872556235    0.59752184935708
H        -2.16826280185662    7.69738594555627    0.57120356489097
Cl        4.31229203763899   -2.65503160753401   -4.62250602395959
S         3.08081060267709   -3.44217040193130   -0.05339678025606
N         1.27818390824059   -1.37006629916774   -0.29146375712246
C         2.04611689123303   -2.24835764337065   -0.17221422746476
N         0.36970699023066    0.78072516493206   -1.77134707422291
C         0.65699823337570    2.07816600279291   -1.91875290846118
H         0.53592719012597    2.68825058454429   -1.03676612205392
N        -1.39303030868073   -1.04797860019896   -0.87275612855642
C         1.07065203846245    2.63203463434762   -3.11262645602852
H         1.29254787582072    3.68540364527263   -3.16804813309783
N         0.02455606925313   -1.33273682031454   -2.73503871736333
C         1.19520472936572    1.80990954816849   -4.22463874083283
H         1.53064695978166    2.20096895692604   -5.17221993115239
N         2.04797513040684   -1.99511781203386   -3.61188253293320
C         0.85187292033608    0.47649108475787   -4.09698509040507
H         0.90774588499648   -0.20230341085415   -4.93055946852252
N         0.55844155927263   -3.56993173795282   -2.67809522833713
C         0.43487561786582    0.00568831088711   -2.85706860968655
N         2.67481873420557   -4.25524466476364   -3.46781500453706
C        -1.17550873810675   -1.61873080761580   -2.06123748675575
N         1.29110725209763   -5.74495053750787   -2.39596270660616
C        -2.10263336994353   -2.44716493099929   -2.68135539297437
H        -1.86996308175121   -2.86584055787582   -3.64667661332759
C        -3.30599185093306   -2.70237844528187   -2.04843504676958
H        -4.03930223900327   -3.35047654539728   -2.50186145271618
C        -3.55259153708803   -2.07695522243252   -0.83331173919438
H        -4.48721622726897   -2.21560934206211   -0.31458530499806
C        -2.58085163856789   -1.25953248978091   -0.29387455300082
H        -2.74744952012971   -0.73401466618178    0.63425706362105
C         0.90449051417255   -2.34855168349080   -3.02344552254179
C         2.85826910141444   -3.01484085148277   -3.81162240044965
C         1.50449354937101   -4.51050855953315   -2.84125239789851
C         0.06678730457462   -6.10987689031266   -1.69321209458186
H         0.20508328410911   -7.14541290697763   -1.37248802732941
C        -0.15832513848240   -5.25538185417834   -0.44654022376594
H        -0.38371388350415   -4.23294372224269   -0.73358094982564
H        -0.98825228734034   -5.65934306606002    0.12898506560942
H         0.73519787305655   -5.25167199513514    0.17226903382421
C        -1.13774408818585   -6.05471208652760   -2.63175052482360
H        -0.97457177801881   -6.69081021522416   -3.49843891513166
H        -2.02730297432142   -6.39725235651790   -2.10903814208348
H        -1.29436469191321   -5.03456725240002   -2.96351696301133
C         2.35302361897621   -6.73978986377109   -2.52034601383913
H         3.15213862483796   -6.24003399206475   -3.07214708248285
C         1.88526013289757   -7.94886741318227   -3.32857170444806
H         1.11848480815836   -8.51535291733951   -2.80497414842962
H         1.49026210848720   -7.62926834898669   -4.28984693156571
H         2.73033871739852   -8.60818092444929   -3.50696279967010
C         2.89545524348796   -7.13916655043096   -1.14962821266238
H         3.77802208090335   -7.75999684321753   -1.27722058773838
H         3.17836654808495   -6.24933769784934   -0.59380138316964
H         2.16475510993126   -7.69844519669454   -0.56967353315419

