105
CSD_code = IHITEA | q = 0 | S = 0 | Stoichiometry = C40H44Cl2FeN16Se2 | MND = 6
Se        1.82456975510732    3.42934855256783    5.79095123541277
Fe       -1.44972611218986   -0.00001502729568    5.84812756709374
Cl       -5.68887026322481   -2.81487934563704   10.55207920604167
N        -0.17870076102455    1.35554909692377    5.60186705767054
C         0.63347019959356    2.19068083645053    5.68572743906272
N        -1.81179882442181    0.73160157374099    7.64569650604329
C        -2.08697065579697    2.02626452555749    7.83078859011223
H        -1.95950035199501    2.66143044647799    6.96736616674937
N        -0.05800145112794   -1.08451440037870    6.69024103417608
C        -2.49818907283376    2.54750856155547    9.04004612128361
H        -2.70971512852978    3.60071316036625    9.12760268148574
N        -1.48199110028534   -1.41172789246040    8.54009455739465
C        -2.63203851942745    1.69228085817957   10.12568717182160
H        -2.96468102417883    2.05748972039624   11.08451085765107
N        -3.46945281056629   -2.11150140902011    9.47220865182556
C        -2.30089772633586    0.36051221059051    9.95933729016690
H        -2.36417668072261   -0.34160087988995   10.77260964308437
N        -1.99600283948348   -3.65220539598339    8.45969986660152
C        -1.88570728389594   -0.07717404471900    8.70600297087271
N        -4.07039636705617   -4.37812056074414    9.32140060607986
C        -0.27889199004915   -1.67974379724354    7.86551093855251
N        -2.70959584600288   -5.83429499536239    8.17680547373556
C         0.65163369953445   -2.51423212672872    8.47374558182799
H         0.41907448053442   -2.95020338794939    9.43144945528430
C         1.85819409643391   -2.75034267071679    7.84076564219720
H         2.59473381098868   -3.40022584127280    8.28638807521993
C         2.10481818434929   -2.10458700647563    6.63648057412069
H         3.04125119818914   -2.22966774082901    6.11781186030860
C         1.13063453664050   -1.28200825321134    6.10940075721111
H         1.29752016118873   -0.74236324579484    5.18937901568112
C        -2.34296180560172   -2.44248881190169    8.84223367207072
C        -4.26079173470416   -3.14488306028766    9.68614841064051
C        -2.92180671616251   -4.60972647073910    8.64767180799143
C        -1.51045452957179   -6.17324873361731    7.41977933960420
H        -1.64643418185055   -7.20749312397213    7.09409374282325
C        -1.35231131341522   -5.30330095870386    6.17400610495969
H        -2.26746223281911   -5.31873886992001    5.58734764860523
H        -0.53457754565712   -5.68126104063714    5.56453751390938
H        -1.14252852652394   -4.27743815513733    6.46102543015606
C        -0.26700921022225   -6.10879854164588    8.30561978837304
H        -0.10746017984294   -5.08878165217546    8.63631366609846
H         0.60273595857479   -6.43804990481773    7.74255724589787
H        -0.38457016843638   -6.75165044880272    9.17464087341493
C        -3.74184783416714   -6.85305425278027    8.35038589484818
H        -4.52705472288456   -6.37042175317472    8.93628314774936
C        -3.20917112578588   -8.04819440079856    9.13918658749655
H        -4.02934610466520   -8.72653098972113    9.35782567274026
H        -2.77815093453290   -7.71640938734863   10.08069659885570
H        -2.45421412353009   -8.59820117424730    8.58188940582726
C        -4.33675137095382   -7.27212865578405    7.00812497534838
H        -3.61938611231206   -7.81079133900727    6.39321671041193
H        -4.67399474193634   -6.39287062884856    6.46446517778015
H        -5.19371593585978   -7.91785572908692    7.17903596359674
Se       -4.72303108713640   -3.43019325648734    5.90376674283965
Cl        2.78903307381109    2.81440089659889    1.14265649877217
N        -2.72081910849528   -1.35552061527495    6.09449096354090
C        -3.53192156978162   -2.19164865406713    6.00980361665654
N        -1.08740762769400   -0.73147790708664    4.05054359402228
C        -0.81234790389288   -2.02615693512918    3.86539776669109
H        -0.93971912877226   -2.66132048007639    4.72883516446709
N        -2.84125036715192    1.08475682049441    5.00605174439096
C        -0.40152005181317   -2.54746474433845    2.65603710428962
H        -0.19003724016142   -3.60067679130550    2.56846852173582
N        -1.41731955409287    1.41187173918978    3.15613801508727
C        -0.26794048849930   -1.69228236486535    1.57033145145683
H         0.06450239592345   -2.05751980384058    0.61144984288104
N         0.56994360072290    2.11134241056345    2.22340096796670
C        -0.59895709715764   -0.36048925306074    1.73674286597415
H        -0.53582414922945    0.34160267860874    0.92344084647540
N        -0.90291903453894    3.65226012430040    3.23643926635288
C        -1.01374996620167    0.07726470380589    2.99018514093429
N         1.17125691946361    4.37787477555718    2.37395960276523
C        -2.62031322738609    1.68006288342491    3.83082538830278
N        -0.18883405033049    5.83420645200304    3.51918979992640
C        -3.55075464468009    2.51474997339683    3.22272701175059
H        -3.31814723476468    2.95086804734739    2.26510147366366
C        -4.75727221025957    2.75091927351470    3.85577097038885
H        -5.49369762586563    3.40104711833209    3.41031788672804
C        -5.00398543393156    2.10497051407787    5.05993529262072
H        -5.94039501368280    2.23008144673790    5.57863841158414
C        -4.02987704828482    1.28224129564756    5.58689869393223
H        -4.19685393570559    0.74235764285663    6.50676530276107
C        -0.55629457425966    2.44250498347678    2.85372994650973
C         1.36135806175020    3.14460479745690    2.00917029617164
C         0.02297714089779    4.60963089736825    3.04816308766415
C        -1.38755350090154    6.17329442244694    4.27682410723363
H        -1.25127838481395    7.20751239788651    4.60247246109326
C        -1.54517091856899    5.30331698047038    5.52264406136340
H        -0.62975771970491    5.31869518141282    6.10889505976001
H        -2.36261532085361    5.68128457477058    6.13249654738641
H        -1.75511410897364    4.27746903870915    5.23568230634415
C        -2.63146573816719    6.10902556753999    3.39162646395979
H        -2.79137878299419    5.08901800499821    3.06107853218859
H        -3.50085953918230    6.43847668730931    3.95511683666167
H        -2.51422970003957    6.75180381883862    2.52250714343177
C         0.84350539286809    6.85280453353002    3.34520259772379
H         1.62837442631748    6.37007425852902    2.75893262531568
C         0.31066131837201    8.04806115196788    2.55669296503615
H         1.13084717918438    8.72627835462489    2.33772689960462
H        -0.12082418138854    7.71638801096174    1.61535558914193
H        -0.44396593200088    8.59815867063766    3.11434766403398
C         1.43907085963517    7.27170481026490    4.68722504741891
H         0.72207990706502    7.81049280425345    5.30246146875697
H         1.77637019648392    6.39235556035609    5.23070414768472
H         2.29609260832078    7.91726306333134    4.51596622259817

