57
CSD_code = IHIXIG | q = 1 | S = 0 | Stoichiometry = C12H30CoN2O6P2S4(1+) | MND = 6
Co       -2.08321726369399    6.05320178084898   10.20679341202320
S        -4.32353696997942    6.18774787414394   10.67518056833593
S        -2.94564710598889    4.17675463890898    9.21887090624796
P        -1.91029941308700    4.94764280500283   12.11215367774986
O        -2.06195838657093    5.75821598105964   13.49567812994258
O        -0.60125340675486    4.12939953075565   12.48630940630911
O        -2.99623933447469    3.77838692815330   12.18104123473189
N        -5.54690458462517    3.98285519907770    9.77869285566319
C        -4.42993123841716    4.67915555103887    9.88131276836326
C        -6.80163464954128    4.44937535198931   10.31615559365715
H        -7.14662582260344    3.77150618902371   11.09898008213391
H        -7.55110323372085    4.47892101338473    9.52368336074563
H        -6.68182629013546    5.44570408708193   10.73584083066147
C        -5.59247095833401    2.70723838929925    9.10573330955437
H        -6.10703807659240    2.80354883786824    8.14740217516816
H        -6.13325241860556    1.99119227953463    9.72457173228260
H        -4.58271768169799    2.34171224323131    8.93121178421374
C        -3.03676153684270    2.88485997272244   13.29534773522338
H        -4.06010122922601    2.51777706764514   13.36000811557432
H        -2.76549151474213    3.39750797248589   14.21848417424542
H        -2.35244433561668    2.05472982038736   13.12632557775461
C         0.63543320294845    4.69106975594676   12.90305910555028
H         1.08703739312133    3.96754888473531   13.58106983658359
H         0.48234880984291    5.63452927109800   13.42662826878842
H         1.28764360747934    4.83715557117895   12.04070966249152
C        -3.10057244720422    6.68033978013929   13.78064819388742
H        -2.92679549507466    7.02462763746998   14.79907302117697
H        -4.07906012248634    6.20268636443232   13.71185605659188
H        -3.06604429055993    7.53249788178376   13.09856639714599
S         0.15707538235819    5.91880439681346    9.73850995041580
C         0.26297492257284    7.42756263089225   10.53218743566301
S        -1.22128461559466    7.92954977662892   11.19496643267790
P        -2.25645751206057    7.15786406391057    8.30102076353324
O        -2.10308970980080    6.34717758343250    6.91777695995072
C        -1.06422662979975    5.42503887304271    6.63376865538586
H        -1.23716787718738    5.08062914722978    5.61525153742657
H        -0.08579284732051    5.90267542472003    6.70330546474593
H        -1.09931933408712    4.57296559076076    7.31591145641489
O        -3.56612836941260    7.97463070917324    7.92589531382663
C        -4.80206773827713    7.41184098759152    7.50853579004897
H        -5.25372179209414    8.13468994577739    6.82984152716373
H        -4.64790523891992    6.46823535738346    6.98555133394238
H        -5.45478067756953    7.26570471648375    8.37049833318484
O        -1.17179645776556    8.32832218414610    8.23259494526151
C        -1.13163323762535    9.22170772460792    7.11816076860567
H        -0.10888674826138    9.59058348252503    7.05456380947422
H        -1.40096996970813    8.70840081954373    6.19483671946022
H        -1.81758089453597   10.05066621885682    7.28623978653834
N         1.37969205455317    8.12426114862037   10.63459780849329
C         2.63464971205892    7.65788945866265   10.09753820435024
H         2.97902227652862    8.33486188316819    9.31366208611495
H         3.38425383907917    7.63002730471235   10.88993466828744
H         2.51547155029846    6.66086914280083    9.67930803444914
C         1.42462479323455    9.40004430545017   11.30729328036800
H         1.93673443043834    9.30370687916318   12.26694354392670
H         1.96746708726849   10.11540899210281   10.68950010405535
H         0.41470839479437    9.76639259138183   11.47921731344068

