91
CSD_code = IHIZEE | q = 0 | S = 0 | Stoichiometry = C44H43FFeP2 | MND = 8
Fe        5.84353862020691    4.63808672662455   10.82484010424507
P         4.20899349782076    3.33498760106614   11.19977578079848
P         7.11099259880578    3.15892441954651   11.71527469198526
F         3.38497957970807    8.06531270024905   18.31218367210447
C         6.40891544886342    6.65137557840520   10.49418759131419
C         7.33431822135750    5.78552524981940    9.86385030209886
C         6.62596299420351    5.00806474397504    8.88487782266802
C         5.26645057001312    5.40044795792398    8.91974059555177
C         5.11655711830091    6.37541621217601    9.95559048221774
C         6.71559338611795    7.75496667163353   11.45374864027023
H         6.11509499516966    7.65678190466806   12.35673968186274
H         6.48192299187872    8.71635630598906   10.99468222271490
H         7.76700370659213    7.75247140522071   11.72905854697961
C         8.82177522195270    5.82539552041382   10.00366946151960
H         9.26558700349936    4.90379727062653    9.63583007576731
H         9.11817166374669    5.96054585331335   11.04183009728170
H         9.22706532680289    6.65595306465840    9.42186563017696
C         7.28067594969132    4.15884141253373    7.84070591909963
H         7.92526413606772    3.40261262401257    8.28794366998459
H         7.89899459935211    4.78063861806842    7.19050210592804
H         6.53678693627896    3.66080183261463    7.22395313956334
C         4.21918416314665    5.01400420362746    7.92545913540527
H         4.13411022142291    3.93388018466382    7.81956677847468
H         4.47535924143105    5.42905484275439    6.94877514123309
H         3.25116933737379    5.41144176081788    8.21738162134456
C         3.87801357284766    7.13127419643905   10.30772776493639
H         3.88870309165788    7.37184058921008   11.36786276894819
H         2.98784580998892    6.53951565594129   10.10745387273229
H         3.81612896205800    8.06117473310817    9.73977581488739
C         4.66555462113008    2.25507303698659   12.63634909188528
H         4.65575743248338    2.87615406201122   13.53433621130000
H         3.95284805175437    1.43158556965600   12.75160226738724
C         6.07841320531982    1.74752352846781   12.37616325360059
H         6.04825986388294    0.96404200712321   11.61366420401239
H         6.52471076048172    1.33105510319886   13.28337389658967
C         2.53906186621461    3.92849229087258   11.59898975018129
C         2.13995791051203    4.25063838142250   12.89102185165063
H         2.80565068043980    4.07528441432758   13.72091754356964
C         0.89295601947083    4.80660594531253   13.11598026425327
H         0.59183854540191    5.05272723363468   14.12408443901333
C         0.03490597779485    5.05320774200737   12.05744961420648
H        -0.93617118372691    5.49102277665417   12.23657008819026
C         0.42524753386595    4.73636211403155   10.76596249658703
H        -0.24180571791108    4.92557133207591    9.93681609606511
C         1.67048290714205    4.18216693727673   10.53919765935180
H         1.97841727526933    3.92680064023314    9.53399710398443
C         3.81251883562060    1.99718308806242   10.00772308723192
C         2.69976958579924    1.17029805777403   10.11555497951858
H         1.97993273261313    1.33789969448752   10.90558186610368
C         2.51521423426750    0.14263298156956    9.20850568755396
H         1.64985676942456   -0.49919763781982    9.29166998575811
C         3.43636477743573   -0.06928360367377    8.19385708076495
H         3.28497905140157   -0.87347558886518    7.48866339488411
C         4.54871247753003    0.74871012290551    8.08493899552946
H         5.26894270285832    0.58413483007652    7.29564867098109
C         4.73179293691378    1.77811064477622    8.99108568675421
H         5.58990863379008    2.43463908395304    8.93782308897232
C         8.07003236164217    3.61975346121561   13.20359743599227
C         8.76049443332477    2.67814684260798   13.96208153660457
H         8.75617102772139    1.63690550812108   13.66669716969943
C         9.46960224877632    3.07442125768934   15.08048294054946
H        10.00118836481200    2.34024992462029   15.66906111082017
C         9.50345975055862    4.41135153257707   15.44657431230813
H        10.05619221076134    4.71548029573709   16.32362216095439
C         8.83333680537911    5.35387107724574   14.68493165286521
H         8.86265798872518    6.39706902503381   14.96529398764881
C         8.12144249301130    4.95850304563429   13.56590861417502
H         7.57190097145291    5.67058720889577   12.97069482892831
C         8.41958232869760    2.25003081385942   10.80975673606624
C         8.10340705195397    1.24957364711484    9.89419059828301
H         7.07832639188978    0.93316968104187    9.76966912539482
C         9.09089419481618    0.64846790065620    9.13483513771544
H         8.82850300216537   -0.13323651698645    8.43633480706740
C        10.41022269379820    1.04948050047357    9.26260611195537
H        11.18047129573473    0.58140573620334    8.66772461184299
C        10.73456604585163    2.05812292412748   10.15464916199755
H        11.76059053489311    2.38152024015424   10.25570105803973
C         9.74831407307563    2.65690226766443   10.91668351553252
H        10.01075840217876    3.44140602796333   11.61206649911860
C         5.27511433736983    5.11801817436841   12.55168986245133
C         4.90041181667243    5.65872861459171   13.57245575466120
C         4.51159040928720    6.27286421842531   14.78344048437094
C         3.36692694455881    7.07441383181962   14.83562642587781
H         2.77878860576543    7.21300462358815   13.93941610627304
C         2.98575622186175    7.67699522790830   16.01740751143306
H         2.10482102829229    8.29794976027582   16.07357538664519
C         3.75666110430269    7.47457522104314   17.14825847784119
C         4.89420890999491    6.68699888725479   17.12928160330467
H         5.46835313656300    6.55365111150953   18.03334083214032
C         5.26885250762615    6.08649235828892   15.94449432807356
H         6.15366285294907    5.46717094065334   15.90146862539469

