69
CSD_code = IHIZOP | q = 0 | S = 0 | Stoichiometry = C28H36ClN2ORh | MND = 6
Rh        9.34878700180951    3.59109604250961    3.41943873485698
Cl        9.43136760474685    2.11208899320281    1.64090387113319
C         7.40084525622558    3.53571757452366    2.96300875002172
N         6.83169657695952    4.26629967149111    2.00366101419195
C         5.64459122144311    3.84946270544939    1.27599856923259
H         5.70998434699297    4.24347018696363    0.25823295786658
H         4.74223437027238    4.26578206812318    1.74429490763679
C         5.58552921491500    2.32974951639477    1.27303394881633
H         4.69345055696170    1.97501438486358    0.75780905838373
H         6.47300185909877    1.93983473900872    0.77049005579729
C         5.59982317667472    1.86674857211347    2.72238107645412
H         4.69315920994423    2.19654704503391    3.24797605960348
H         5.65773000926377    0.77631969497644    2.78597332043744
N         6.77720967730981    2.42440279948731    3.36173244040016
C         7.29030281959211    1.73165021385821    4.49653719185364
C         6.84932774501526    2.13472584074658    5.76934799343282
O         5.95952727091454    3.17319705641232    5.78579590695924
C         5.52413995290012    3.66191124050748    7.03059438555062
H         4.97778038088962    2.89875825236801    7.59403285519622
H         4.85404505606069    4.49009233876540    6.80402044583445
H         6.36036899537026    4.03018551955031    7.63376029754110
C         7.32716077327633    1.47373067751629    6.89205178803431
H         7.01642619802174    1.77006113702804    7.88179033503808
C         8.21315039234222    0.41719817510267    6.74899474275885
H         8.57910542497352   -0.08367974998599    7.63325754931323
C         8.62216044883473    0.00150676295876    5.49615326192234
H         9.30518945827611   -0.82763491181806    5.39352650749422
C         8.15436611693015    0.65629126609227    4.36736538502268
H         8.46040498418739    0.34709034771083    3.37941251490256
C         7.24782721393101    5.61798202877609    1.79923680229405
C         8.10156080600097    5.95962020990342    0.75051666845800
C         8.46893628197471    7.29204994945242    0.60288103438346
H         9.14180485873404    7.56032586531347   -0.19946186580043
C         7.99778780398522    8.27859975653442    1.45254779868918
C         7.12558744973312    7.91736588790946    2.47083389632616
H         6.74276023107128    8.67979357171263    3.13511725263320
C         6.74051899453917    6.59939296028194    2.65822841311013
C         5.78860074530198    6.24604845796609    3.76509786290609
H         4.76999189851322    6.18391121522895    3.37917080843948
H         5.80619787073060    7.01113752034755    4.53812872556421
H         6.04247096971764    5.28713025230167    4.21344726739741
C         8.40833530695686    9.71098167555719    1.28822959065729
H         7.53478659322093   10.33955256575537    1.11918444997340
H         9.08811664569077    9.82789269434438    0.44831194787842
H         8.90482089351339   10.06794112247906    2.18989827913959
C         8.60425855080745    4.92985304664354   -0.20835034874606
H         7.81141357530416    4.62020824856768   -0.88969077012365
H         8.94528279956863    4.04339888142481    0.32470607713123
H         9.42593421178224    5.32457692127686   -0.79982740591311
C         9.43469875538281    5.46355384032629    4.39585358269518
H         8.55240470729065    6.06314447605092    4.18915157841106
C         9.31094441185071    4.46115561417603    5.35875581604604
H         8.32662731969306    4.34162200676549    5.80402672061149
C        10.44855252822915    3.99728006013377    6.24500776925000
H        11.11705411363125    4.83922077585502    6.43517112288585
H        10.04331030021952    3.68403771494248    7.21032133742790
C        11.22845340028929    2.81673051626329    5.63629931422705
H        12.26520852786694    2.82676801660197    5.99186617198563
H        10.77541489624865    1.88265170568743    5.97915275299843
C        11.21867256486521    2.81039960105078    4.12536856077047
H        11.33011861725133    1.81547512453965    3.69253844411382
C        11.49723334070804    3.89952962367131    3.32476716033493
H        11.78065177116406    3.70971500072678    2.28951658774896
C        11.91715642876401    5.24764794343727    3.86370193199838
H        12.62528685327571    5.70630392968149    3.17002998551403
H        12.43784153020050    5.10935349130593    4.81265682415586
C        10.71247823852056    6.18750532930391    4.04019838402340
H        10.92923368449059    6.94155378021478    4.80622113691461
H        10.53509820878003    6.72077045653305    3.10181240780126

