78
CSD_code = IHOBEN | q = 0 | S = 0 | Stoichiometry = C31H42ClN2ORh | MND = 6
Rh        7.63498960604636    6.58722789205661    3.71516058184585
Cl        7.17082001475316    7.02447660380203    5.94211357148210
C         8.19227976408013    6.65921867824939    1.67020848065593
C         7.86396303642403    5.34926295907151    2.02593637282914
C         8.86985311850077    4.24660403563594    2.26861316303692
C        10.00568284295763    4.65266433206804    3.22658900221155
C         9.56542090353462    5.70396419974254    4.22098500021699
C         9.70455169822986    7.06041770174692    4.00207205150091
C        10.25477076823585    7.68287427286622    2.73941266313441
C         9.61637173149582    7.12578026363902    1.45258097499861
C         5.70894663044751    7.12738123280631    3.53272583323842
N         5.52874957859393    8.44354109952528    3.67188974692269
C         6.59890572066669    9.32938530928842    3.35024512124270
C         7.41948953860625    9.86773007435469    4.32920850457337
C         8.42335755195933   10.75855120180552    3.98436902441118
C         8.59463147798473   11.11970353845893    2.66128837003060
C         7.75755965460467   10.61877561485806    1.67637543178074
C         6.74189666280446    9.73370619481758    2.01080965269513
O         5.82911022985194    9.21972700751058    1.13339058123279
C         5.92451735376495    9.58973579026820   -0.21917021866401
C         4.30264536437387    9.05583511364238    4.14996369869816
C         3.59212519942217    8.04797180192542    5.04036460072242
C         3.36613478323740    6.79348419546585    4.21272343077858
N         4.64494618489220    6.33523718274663    3.68778664216465
C         4.63472188310147    4.99675004662354    3.18514286466422
C         4.87489264658164    3.92064682801597    4.04137731702033
C         4.79358247761052    2.63182595903533    3.52754813335913
C         4.46596766665173    2.41361430803547    2.20515536555373
C         4.22156305733356    3.48653985403182    1.36980552739254
C         4.30481284694987    4.79096455762276    1.83832007499924
C         4.00112598146657    5.93971528123896    0.90117780886448
C         4.81846660879210    5.85967498451883   -0.38988182457641
C         2.50479089999656    5.95161631261983    0.56913085151453
C         5.25601580727762    4.12748161892822    5.48516251477103
C         6.69423470121168    3.65055918930976    5.69044115787530
C         4.29018849307258    3.41610416647101    6.43330420325621
H         7.44666319830123    7.21427713012584    1.10678637276777
H         6.89674664969840    4.96559707236667    1.70531032588550
H         9.28648442177922    3.92106105436329    1.30794862076135
H         8.33266082008653    3.39321486007429    2.69022492725326
H        10.86025123549347    5.03271866371377    2.66344763828817
H        10.34440841199452    3.76702881653734    3.76851646429396
H         9.51287702952636    5.36745594186995    5.25536666061702
H         9.76095828898997    7.71452895590966    4.87338700000801
H        11.34104545843032    7.53767460557150    2.71313948510000
H        10.07150993845977    8.75922958957055    2.78645898057403
H         9.62568691936282    7.91110116804036    0.69271738592316
H        10.20778459554735    6.29469146300100    1.06270155012719
H         7.27146959772817    9.56936251395405    5.35591137215627
H         9.06932444088154   11.16369938459042    4.74792466902718
H         9.38082079294662   11.80623174005785    2.38294313691468
H         7.90321137580553   10.93151854060036    0.65422455446825
H         5.09692072536056    9.09083784255638   -0.72070941762206
H         5.82361856944018   10.67223533689593   -0.34907715099059
H         6.86793151003476    9.25657275887918   -0.66387852231805
H         4.56416952130002    9.95917845548916    4.70774439041511
H         3.66734701733028    9.34435226082441    3.30107792557335
H         4.23964594321469    7.81177483495242    5.88750974383808
H         2.64679805672166    8.44485623344876    5.40882004539336
H         2.94257636052805    5.98944954830645    4.82201511540077
H         2.66842505897020    7.00188060051358    3.39099717622645
H         4.98500591130825    1.78831937173438    4.17282598947584
H         4.39829150788761    1.40579345988702    1.82199394788549
H         3.95783316204181    3.30272241105729    0.33950650424222
H         4.26274314478642    6.88124636454311    1.39253793163077
H         4.58558199797609    6.71125203110163   -1.02586759620493
H         5.88269025285911    5.87392551781885   -0.17105561998005
H         4.59346260804436    4.95460211665173   -0.94801487792850
H         2.25625172819808    6.82684760886274   -0.02784309236333
H         1.90326401413253    5.96862506644648    1.47567787517561
H         2.23363795669664    5.06267124968181    0.00416277776474
H         5.24042634382536    5.19568664028092    5.71257337892170
H         7.01418772296856    3.86470854552512    6.70689025977208
H         7.34384172833723    4.19700114509826    5.00164315945096
H         6.79411966397428    2.58349649899695    5.50277740667354
H         4.54535286925414    3.65480398312411    7.46297214009376
H         3.26456261516290    3.73306688005839    6.25051071828301
H         4.33932834908132    2.33645233411211    6.31157437059456

