78
CSD_code = IHOCUE | q = 0 | S = 0 | Stoichiometry = C31H42ClIrN2O | MND = 6
C         3.78845822372903    1.93721954770073   12.26740245387785
C         5.21173967805675    3.83712424025199   11.58416663787022
H         5.86146254519455    4.14573465992461   12.41476649336152
H         4.94930375347062    4.72589971108992   11.00415729246048
C         5.90377928830414    2.79920999970563   10.71422865946933
H         6.84933881949086    3.17709455940581   10.32709580124458
H         5.24705808108015    2.54643818975566    9.87929189764280
C         6.12454374315206    1.56552639970983   11.57409350860070
H         6.54238506082505    0.74358819285379   10.98615227706493
H         6.82480026478939    1.79262857864881   12.38872298875480
C         2.92693281973034    4.14939506832832   12.40276427136332
C         2.74385316090201    4.53367463728813   13.74221769406459
C         1.71978806042542    5.41538977086639   14.05756813911673
H         1.54177868637979    5.71262514206685   15.07909716418669
C         0.91471986322590    5.93289882061243   13.05459857325477
H         0.12003235242051    6.61531306123876   13.31821807822690
C         1.12856935180824    5.59308182346376   11.73201607445921
H         0.50717291394516    6.01038799874545   10.95487287816140
C         2.14100106863288    4.70603035573893   11.40699631815963
H         2.31374478034207    4.41459092240167   10.38294248049182
C         3.48368797546039    4.34636332688674   15.99499145541334
H         3.58832612279457    5.42509993795519   16.15091091317111
H         4.28789153719732    3.82974904415497   16.51596962244686
H         2.52190514804007    4.01268072358253   16.39770339243252
C         4.82789229962058   -0.20892468802106   12.61213776256134
C         4.57250377474309   -1.27818421163236   11.75136860379050
C         4.62440274754255   -2.56886240586364   12.26377645485806
H         4.42639703640272   -3.40773965688429   11.61461285895142
C         4.93252466299293   -2.79582516497017   13.58945537315191
H         4.97607224332453   -3.80548955097087   13.97115240952156
C         5.19232752720591   -1.72970538188549   14.42872970508538
H         5.44412637982863   -1.92101269241785   15.46054838487164
C         5.14165131963868   -0.42345018019754   13.96097765636164
C         4.23483734697617   -1.06574514982361   10.29729453684684
H         4.19303569653803    0.00542393416440   10.09225411166640
C         5.29350988098600   -1.69595024492657    9.38991643525518
H         6.28394446316241   -1.30381952313327    9.61585912781094
H         5.06589080533151   -1.47487946484051    8.34993197202523
H         5.32132370434737   -2.77649447266871    9.51258879966052
C         2.84726665907555   -1.63177667712523    9.99463310642620
H         2.81923421552838   -2.71303024649059   10.10999998271922
H         2.56311449148660   -1.37960962213546    8.97635440842950
H         2.12357763779889   -1.18431578705726   10.67210337659638
C         5.47166173583016    0.71839084322366   14.89740433097729
H         5.22229125605933    1.66409576001489   14.40843160633208
C         4.66576836414054    0.65319957598125   16.19613173226595
H         3.60043838225327    0.69153624336573   15.98729074565263
H         4.92417646288747    1.49811992910839   16.83110460782436
H         4.87677408919382   -0.25717875461653   16.75087783165784
C         6.97123138961832    0.70248839003429   15.21535047775080
H         7.23177138938389   -0.19374459756076   15.77379191000582
H         7.24095485213649    1.57052368830952   15.81355580067397
H         7.56399066831974    0.71274333993282   14.30308542354478
C         1.60304477603559    0.16485541148923   13.79868488615608
H         2.55235692159081   -0.21734109548638   14.16778146995973
C         1.26044955891093    1.48526254742708   14.14953738366374
H         1.98641876138414    2.02639520947074   14.74845959945801
C        -0.17122507821367    1.93767418076842   14.35659245886223
H        -0.75849906001874    1.10380108621291   14.74580995339764
H        -0.19505799742178    2.72674383048318   15.11172242342820
C        -0.80411758782744    2.48140872705595   13.06156483496029
H        -0.62717278247812    3.55796147476774   13.00867203202892
H        -1.88931501213011    2.32998955178594   13.08037314887858
C        -0.23342321324111    1.85842658621752   11.80957300976716
H        -0.29815321995052    2.50372926418707   10.93554519413250
C        -0.07813937555859    0.50004790059470   11.59834754327200
H        -0.01897543458004    0.16087862805687   10.56761903245146
C        -0.52526422083673   -0.55192728197009   12.58901391884781
H        -1.39163602193541   -0.17870851944629   13.13806030747182
H        -0.84774161257733   -1.44191637145320   12.04490188071702
C         0.59950975673920   -0.94374940662031   13.56568854246835
H         0.17310521006108   -1.25846883772823   14.52495892979607
H         1.14415262359926   -1.79948606216328   13.16066079604146
N         3.98883524534337    3.25003711880653   12.09962884949618
N         4.84477200583281    1.13060187418401   12.11365017549331
O         3.62598003096454    4.00295870069596   14.63939876106461
Cl        2.30288100599138    1.82266507776911    9.82126969681799
Ir        1.83724993856825    1.40773246160841   12.11112057280409

