70
CSD_code = IHODEP | q = 0 | S = 0 | Stoichiometry = C32H30Br2N4PdS | MND = 4
Pd       12.46153997690572   11.82899295695731    2.47319490885035
Br       10.55425806073933   10.32875966635619    2.40205582853183
Br       11.10707431288314   13.84496827529919    2.58109133088202
S        15.56642749865006   11.49251149502496   -0.14903921880093
N        13.84064407775528    9.54820907355195    3.74412187415396
N        13.90421223726760    9.34616890752602    1.57655540767118
N        14.68685362612030   13.77911986926004    3.18761772891457
N        14.13026347421486   13.81158151716270    1.08925738089401
C        13.51704664054024   10.15259189202444    2.58551522312529
C        14.49170537575152    8.36130397728259    3.48673299734484
C        15.06387803618751    7.40830509835641    4.31380798631028
H        15.05062723487490    7.51383608552454    5.38584291456338
C        15.64773541593817    6.31346149094233    3.70460883208333
H        16.10451183352004    5.55134087364709    4.31682859680354
C        15.65549677132638    6.16445800145381    2.32001845209799
H        16.11230076718901    5.28786148352178    1.88701039180024
C        15.09305915293155    7.11393564552737    1.48683436384986
H        15.09881796748613    6.98697216608258    0.41553077023379
C        14.52154120564903    8.22338246040229    2.08807766545392
C        13.40409570855717    9.99954155511169    5.04916075766758
H        12.65730112196460   10.80416295669206    4.87521319286806
H        14.25374061433219   10.41072308530636    5.60371859289911
C        12.76869266213389    8.88794401356368    5.84338782911661
C        13.21775632437918    8.60667001513262    7.12713202847963
H        14.02351050147358    9.19020897202742    7.55268654877477
C        12.63789087878902    7.58767784233159    7.86177989970238
H        12.99139365218924    7.37753775536233    8.86073731226463
C        11.60862960599383    6.83945101679610    7.31590013289830
H        11.15734093934496    6.04342442094385    7.88930054390715
C        11.15592827273132    7.11883344904032    6.03745261004096
H        10.34705713342569    6.54575266244054    5.61053362851154
C        11.73065014016660    8.13993662512517    5.30259160763637
H        11.35910613783187    8.36527343589266    4.31415933136734
C        15.38430756612160   14.82369112658245    2.62099128804420
C        16.28311683443788   15.73953059881087    3.14159602864755
H        16.57845742258343   15.71765398750712    4.17867510532565
C        16.79108425612500   16.68714114288107    2.27235789441502
H        17.49357464915410   17.41845241944318    2.64115275929298
C        16.41431302194993   16.72484961383640    0.93220057016033
H        16.82884315760116   17.48766489112169    0.29138364833403
C        15.52259773364041   15.81000261491669    0.40336621956263
H        15.23030915543902   15.85301801845033   -0.63399138502410
C        15.01602264350031   14.85117002783221    1.26522828686665
C        14.74120804360691   13.38214398642388    4.56692103205204
H        13.73885502996245   13.00440187429114    4.83939530352323
H        14.94083325036688   14.26418247117081    5.18152248067025
C        15.76966467039240   12.30707981788516    4.83842930602247
C        16.15652465762007   12.05952810182919    6.15161893720257
H        15.76109202259660   12.67436247259976    6.94787133399872
C        17.02700389476163   11.02489877399683    6.44365626532339
H        17.31603672967398   10.84017440783210    7.46765093266939
C        17.52121248885643   10.22460573382349    5.42628080453007
H        18.19121912913555    9.40951325806374    5.65400451152685
C        17.15649291243525   10.47857958313537    4.11619120636502
H        17.54285364720377    9.86459649543317    3.31619310609987
C        16.28853412745704   11.51660378778880    3.82137412392511
H        16.01759152125303   11.69900085109915    2.79098234984569
C        13.56772532628713    9.56077098024183    0.19358480048037
H        12.81147539342215   10.36262553179575    0.15977019538866
H        13.11291149484437    8.64605992887971   -0.20379316347657
C        14.78269334145922    9.92546885397457   -0.65160203625205
H        14.51461343570950   10.00006734219403   -1.70458036373508
H        15.56743794302634    9.17845939487941   -0.53359550580817
C        14.57632232362732   12.73849466794400   -1.05347426414360
H        15.30502384765742   13.47043996156666   -1.40210713336916
H        14.11057403980033   12.25698196439077   -1.91078691454374
C        13.53597427261736   13.41442981287798   -0.15896275937953
H        13.12508074185668   14.29415107822998   -0.66502947994278
H        12.69973758511040   12.72603266263601    0.07359896288238
C        13.93989432946432   13.16027302196142    2.25570810162072

