71
CSD_code = IHODIT | q = 0 | S = 0 | Stoichiometry = C32H30Br2N4OPdS | MND = 4
Pd        2.68898897110327   11.57744608931184    3.77212677165770
Br        3.32811194746185   13.84830539645891    4.35484648349292
Br        0.32727019964012   12.09641937284432    3.59323433020732
S         3.96616873841401    8.49813234651431    5.63591965316712
O         4.88987684351476    7.41358131853756    5.95839104896801
N         5.71313840271314   11.23461029676456    3.48398535689399
N         4.99347309437032   11.13329612742846    5.52991530076693
N         2.09662435832692    9.53150013195118    1.73676398493216
N         1.59765966105227    8.75177529488279    3.70747602977606
C         4.60215554788866   11.20705781744938    4.23891431764544
C         6.83362322755265   11.14395469366198    4.28280113669912
C         8.18744388462025   11.10640982310044    3.99412477331453
H         8.55232098249098   11.13898427750144    2.97979078001681
C         9.05651849269972   11.01774325105018    5.06568735206776
H        10.11906073015715   10.98430705531897    4.88124846221399
C         8.59519235595652   10.97182151761539    6.37904326836686
H         9.31000017043345   10.90706473005041    7.18460114103968
C         7.24525082829241   11.00467251774596    6.67508472162428
H         6.89700257114855   10.97263416168506    7.69515083711062
C         6.36791725725851   11.08587987720720    5.60668247562409
C         5.70880702447887   11.35150157249166    2.05228148524738
H         6.61233406061602   11.88174696292662    1.73883438276733
H         4.84148446033624   11.97812452125791    1.77747593806705
C         5.60597112725098   10.02208944514320    1.33943597903829
C         5.19768309840636    8.86743645829456    1.99334356678403
H         5.01289801535681    8.87445014733032    3.05866140137027
C         5.02244423553275    7.68883859619720    1.28724961424779
H         4.69661520803531    6.80096361241965    1.80792317720992
C         5.26039512581310    7.64952124687372   -0.07497198146472
H         5.11536369935784    6.73184862554730   -0.62427985221649
C         5.69320886538685    8.79169651667536   -0.72950647619004
H         5.89372232963567    8.76574864623271   -1.79027907824922
C         5.86443075958014    9.97074613160658   -0.02686591010882
H         6.18907535180811   10.86451719845039   -0.54068728519842
C         4.08037587899729   11.05610255703100    6.64241834508186
H         3.09412802243088   11.41997624830752    6.29009110952648
H         4.42207474136069   11.72567899987266    7.43794187880710
C         3.98500144693118    9.61689139693072    7.13392070549814
H         3.11131527707208    9.46409708633576    7.76069169913384
H         4.88315059635732    9.31630641599382    7.67148667991105
C         2.13479677988493    9.80355574429049    3.05446153683319
C         1.58123712670026    8.26957433392437    1.53198069075907
C         1.38440236252514    7.51030286667145    0.38957288944760
H         1.64646617155957    7.88407025190888   -0.58611799967479
C         0.83238557990961    6.25402266140854    0.55537252589306
H         0.66543493741432    5.63371909178909   -0.31149722390990
C         0.47948795801686    5.76924075857040    1.81249759658358
H         0.04169274576018    4.78640631860883    1.89427305945916
C         0.67929020640777    6.51686164853917    2.95819994128325
H         0.39975411046769    6.13519517656893    3.92753885615231
C         1.24707328648860    7.77075131458390    2.80225559816280
C         2.38580935409161   10.49480196601681    0.69407328325852
H         3.33708364703374   10.24676622909181    0.21301334853051
H         2.47372284170883   11.48691920743456    1.18831887130877
C         1.29122685949585   10.54306463725426   -0.34053261336271
C         1.60115604604395   10.40094258424501   -1.68674048832331
H         2.63083747319527   10.26007345183249   -1.98743456207789
C         0.60034050899260   10.44078735872003   -2.64118275503637
H         0.85045500096213   10.33191126401723   -3.68630985180577
C        -0.71766551762771   10.61737170263730   -2.25572479612455
H        -1.49854276640404   10.64602640900716   -3.00095391227835
C        -1.03026043608891   10.76339830183407   -0.91482659953843
H        -2.05459724417695   10.91158930824262   -0.60913289441998
C        -0.03126444623122   10.72900308742183    0.04105672783808
H        -0.28023809486321   10.86298852622154    1.08298625277304
C         1.30130528283924    8.72232840998422    5.11803245318044
H         0.26461288704426    8.39441782649264    5.25026446056647
H         1.38158479299331    9.75622817927295    5.49256639168313
C         2.25868608988651    7.80538715479385    5.85971718963396
H         2.29190064885826    6.81501849884880    5.40715342408684
H         2.01254821726971    7.70979724675722    6.91376499427568

