63
CSD_code = IHOFEQ | q = 0 | S = 0 | Stoichiometry = C28H28N3O3Re | MND = 6
Re        4.68919677751029   -3.57929387642973   -4.13808255524833
O         2.97983373509162   -5.43318382828085   -5.94752236734832
O         2.36556765209359   -2.80466343917152   -2.24102607781766
O         5.70000593823762   -5.84644989128623   -2.28350331198651
N         6.36767994057801   -3.67325863657803   -5.51073936135476
N         4.40238315835341   -1.92538195109231   -5.50173229572679
N         9.85522306282383    1.57131338624096   -2.84546912527311
C         3.60030841583968   -4.75813719974764   -5.26341522387087
C         3.22507764836925   -3.13541985325914   -2.92974339398875
C         5.28064771572916   -5.01352054339038   -2.95620008509381
C         5.98955173356809   -2.20424101439430   -3.23214379728103
C         6.85439285867662   -1.36105910394676   -3.11804902929815
C         7.86294239041412   -0.37930738359139   -3.00139764332397
C         7.98884119403450    0.43781102610675   -1.87450181770352
C         8.99481185179500    1.38499944111827   -1.85491300076605
C         9.73832598545192    0.79466742566429   -3.91213397779341
C         8.77465374653319   -0.18452766311813   -4.04632981307042
C         7.34885999529155   -4.57361816307302   -5.46173173049357
C         8.52630119897708   -4.45325209092539   -6.16698315138423
C         8.74137240042188   -3.34217238027148   -6.98491828531548
C         7.70247845089457   -2.42686966541675   -7.05600289465891
C         6.53329653783632   -2.60846522833680   -6.31960106184537
C         5.41715207967757   -1.65475554158431   -6.34624630358878
C         5.39276600441278   -0.54048651121060   -7.18277816841050
C         4.32400323834559    0.34195697544455   -7.16771944572488
C         3.28576887202001    0.03381332991876   -6.28610783851072
C         3.36541501757429   -1.08777539741819   -5.49042449380090
C        10.05157224423737   -3.17594908118310   -7.72739843060970
C        11.19373489968520   -3.15102773345965   -6.70134988605272
C        10.23035635963021   -4.36410123948118   -8.68307500027235
C        10.10569361441742   -1.88193410371077   -8.54359377899974
C         4.25024002081518    1.57892897459629   -8.03956173515514
C         4.14867894574293    2.81168118202484   -7.13003830607212
C         5.47885721466528    1.73946663916094   -8.93840614977612
C         3.00366201079629    1.48128385381895   -8.93060487137163
H         7.31003434557518    0.32342692458777   -1.04281133265325
H         9.12524041726542    2.03779311125754   -1.00042776458529
H        10.46174158359225    0.97612906055568   -4.69919374911969
H         8.71829750419589   -0.79594968481104   -4.93768042322562
H         7.18600312745832   -5.42877773043318   -4.81782927177229
H         9.27336851681464   -5.22241703774635   -6.06080988987969
H         7.80044772189789   -1.54974846233994   -7.67051050455136
H         6.22097938297265   -0.36838900646756   -7.84638593478813
H         2.41289873419565    0.66091999612715   -6.20890620995608
H         2.56024327262001   -1.32752409456383   -4.80716969103902
H        11.25534531525797   -4.08549515259417   -6.15079085435817
H        12.14268612029206   -2.99222087130966   -7.20783627137976
H        11.04595031700066   -2.34353844757781   -5.98694187369143
H         9.41781601157106   -4.39482889108207   -9.40654557767930
H        11.16848562323063   -4.26575630644695   -9.22374776097700
H        10.24539118677858   -5.30823893460938   -8.14565374259768
H        10.00673942058534   -1.00844946819663   -7.90240708918319
H        11.06628361150217   -1.81564697543517   -9.04907959321268
H         9.32808465799787   -1.86156025479525   -9.30465090190945
H         5.01756677294280    2.87388512710988   -6.47797033709603
H         4.10620562966145    3.71464005717732   -7.73434086766154
H         3.25803768302385    2.77613641734877   -6.50892052969307
H         5.58029219776115    0.89859508649842   -9.62162199663105
H         5.37213666988883    2.64204193805519   -9.53556741517046
H         6.38728585996154    1.83749328404373   -8.34788504692633
H         2.09361916135921    1.43815695453946   -8.33881711805295
H         2.94490546323635    2.35104836190703   -9.58041099539892
H         3.05046078082239    0.58960428546186   -9.55284284784993

