61
CSD_code = IHOHUJ | q = 0 | S = 0 | Stoichiometry = C26H26N6NiO2 | MND = 4
Ni      -11.59510971577218   -2.59092971428421    3.84613509611242
N       -13.36182668508114   -1.96066241560966    6.08340190470884
N       -11.56589010336333   -0.78205315927165    6.07899470328157
N        -9.88431731686196   -2.49796943223512    4.69332470094299
N       -10.79671079776463   -3.85280927504035    2.68149811941690
N       -13.38935871424953   -3.38246707036924    1.73891387232830
N       -13.62317838512869   -1.28989757797725    2.15779549043154
O        -8.14804449523637   -1.44926770710444    5.74216180633970
O       -10.75361389396464   -5.68566282964647    1.32560009553336
C       -12.27910641878182   -1.64472338893147    5.33028559129948
C       -13.02761339471662   -2.42325718275136    2.60972140709885
C       -12.88760812925005   -4.72309185654234    1.77422375578367
H       -13.15792868442719   -5.24043742501671    0.85212533106512
H       -13.31068603227404   -5.26794392535424    2.62229943023377
C       -11.33760200480908   -4.77997531872595    1.91327067086208
C        -9.34632115656589   -3.91356788286090    2.83779417592694
H        -8.87744468889069   -3.16122563935144    2.18919216608004
H        -8.99006509777545   -4.90488734546330    2.53870311357547
C        -9.02976465783826   -3.60963397413070    4.29680335673781
H        -9.25334816596618   -4.48611440911379    4.91863122300818
H        -7.97950716167795   -3.33399486197947    4.44006871608551
C        -9.31517444697207   -1.51949314779781    5.37281695065740
C       -10.26030026731223   -0.32111608968536    5.71128487061815
H        -9.81722762545357    0.23842359752537    6.53593717018629
H       -10.31508706614462    0.32512086477330    4.82876474578892
C       -12.18008127050275   -0.56026718622406    7.27753039592352
H       -11.77102100505475    0.09125491103030    8.02173135879780
C       -13.31351280950060   -1.30267719321190    7.28175149831125
H       -14.07054306824284   -1.41377801888887    8.03052177732183
C       -14.39058541111653   -2.89363786581502    5.70677945075929
H       -14.92786308517151   -2.50324659820406    4.83250013757379
H       -15.10256084893935   -2.96228594525700    6.53639443263976
C       -13.87915454149595   -4.28135389694631    5.37363737343945
C       -14.78504411670318   -5.19304362173460    4.84092838917425
H       -15.80730337217385   -4.88648248298839    4.66552651824790
C       -14.39060475893493   -6.48349969581590    4.53613937326174
H       -15.10653991635411   -7.18088526908235    4.12634533479124
C       -13.07783674908273   -6.87628067010437    4.74772368632222
H       -12.76470480939250   -7.87778101098200    4.49643820679696
C       -12.17346434202797   -5.97774547955909    5.28277413687152
H       -11.15325918958905   -6.28177186684641    5.45927922467940
C       -12.56769009334203   -4.68533096458117    5.60303809209697
H       -11.85679902727763   -4.03333591818574    6.09537676627284
C       -14.19330868356185   -2.87211340446074    0.76212826641261
H       -14.58924219116611   -3.47398936924756   -0.02965487406735
C       -14.33918163896275   -1.55092515407643    1.02236100823765
H       -14.87948476438541   -0.79029324578532    0.49756396938948
C       -13.43277189016849    0.03975110287827    2.68636045224915
H       -13.29574627444446   -0.04217656666253    3.77072892429526
H       -14.32878879946658    0.63141515509987    2.48004847475685
C       -12.21532304275856    0.70433325239235    2.08244886761302
C       -10.97450114547220    0.08649494912635    2.17759383397101
H       -10.88555644680430   -0.88604150020924    2.67818738096669
C        -9.85033343148946    0.68607229591673    1.64151993700325
H        -8.89106492741302    0.19914677104394    1.72787394570163
C        -9.95751007573627    1.91106293441830    1.00230607315689
H        -9.08056925661784    2.38165852665474    0.58418831854652
C       -11.19135592153341    2.52941119612305    0.90030027388913
H       -11.28023494372973    3.48286554812918    0.40109423159705
C       -12.31773574754539    1.92754200470551    1.43637830542119
H       -13.27868729754954    2.41647144428392    1.35550799348101

