75
CSD_code = IHOJUL | q = 0 | S = 0 | Stoichiometry = C36H33ClNO2PPt | MND = 4
Pt        2.97995552834329    8.03351660542878    2.24518909699976
P         3.16745566744462    5.96284400153815    3.25663398037821
Cl        1.11960707876028   12.68657772563113   -0.71094708236870
O         7.72751411749442    8.26194794261139    1.70589239682430
O         7.84355124507469    6.42681103073714    2.98678183359968
N         5.06362744084762    8.59755929558850    2.72965236501791
C         3.03525160481628    9.84708277715115    1.36241556838953
C         2.06618596417772   10.58045632933415    0.68029136465131
H         1.06125659472167   10.20100114047984    0.57404387484796
C         2.36216768074798   11.81343953256962    0.12241609666100
C         3.62894569405606   12.37633266924692    0.20718258315244
H         3.83114886349190   13.33620774840243   -0.24158038614266
C         4.60850534971805   11.67840916995188    0.87756510793695
H         5.60489441737263   12.09024065398524    0.96038998213102
C         4.32159327492387   10.43637845688612    1.45063976999268
C         5.33454499295795    9.72567970316067    2.18008043532985
H         6.32009604872659   10.18063740528920    2.25749825606422
C         6.09126682776560    7.91321016710066    3.46978139901494
H         5.69283884806799    6.96552845879916    3.84648621158063
C         6.60179434436616    8.72502861707375    4.68736862581827
H         7.03018202177794    9.66832507893931    4.34493700979347
H         5.74002804132560    8.94246822913088    5.32274980706430
C         7.62434734486073    7.93010171265488    5.44438669172242
C         7.23171189246861    6.84540400140992    6.21930084980012
H         6.18222790545816    6.60643043674446    6.30864421199532
C         8.17235673338422    6.07578536379415    6.87801445938525
H         7.85327411708625    5.23560842341652    7.47751888529922
C         9.51894435150800    6.37991380074453    6.77015882043841
H        10.25444982245570    5.77775929644028    7.28277323175815
C         9.91881306213102    7.46082790296300    6.00380566697198
H        10.96777259160520    7.70497942775729    5.91779191199214
C         8.97635577310488    8.22987977853840    5.34395213194410
H         9.29408619391896    9.07076429150839    4.74246992255058
C         7.29825290618841    7.58009520074332    2.59741218662222
C         9.04809082576042    6.05112954627614    2.33281356179249
H         9.27961184521546    5.04747329323996    2.67791950458159
H         9.85005684348503    6.74118465806009    2.60352162546430
H         8.91129032679724    6.06884274979341    1.25007824961349
C         1.03220248183863    7.73288876259552    1.67762525284686
H         0.63985763371852    6.75372083349910    1.96902073777183
H         0.94161973639182    7.81211892087384    0.58997839752161
H         0.38589455143389    8.49447538811538    2.12544598532795
C         1.95294688460289    4.60239092580992    3.24819406000926
C         2.07591093467872    3.48136813830736    2.43617379775080
H         2.94174130202111    3.36674002500073    1.79914408180086
C         1.08975030243037    2.51027329401831    2.44506978386252
H         1.19310919288307    1.63708463575697    1.81730931711777
C        -0.02663628530046    2.65565022601490    3.25104613722988
H        -0.79363448669611    1.89545035674868    3.25402567107746
C        -0.16337443817360    3.78211264549074    4.04774602386357
H        -1.03890981707527    3.90309522996310    4.66867155785422
C         0.81831612914508    4.75334229338227    4.04305528579626
H         0.71506193316260    5.64144158599770    4.65312130793444
C         4.61664422149684    5.15397536154113    2.50194037769357
C         4.85443842564440    5.55858758477393    1.18957162921211
H         4.21148875219116    6.32623541509331    0.75265978560219
C         5.88752394226114    4.99930743444487    0.46243232050920
H         6.06725126153068    5.31382851061301   -0.55520401073751
C         6.69331462557318    4.03444802782839    1.04675138579242
H         7.49842782516446    3.58845779939420    0.48066709402439
C         6.47510738985780    3.64709270777358    2.35889042478836
H         7.11353131019996    2.90444204483691    2.81540998107947
C         5.44039397965009    4.20318370267782    3.09001731086736
H         5.28356437113126    3.90173736392729    4.11493013958434
C         3.43836703838401    6.11222599995505    5.05243061655805
C         3.38709269952681    7.40971609417292    5.55569220543299
H         3.21181031683098    8.23033058670787    4.85896590391965
C         3.53129356348824    7.64074076368620    6.91154606921029
H         3.48713418390527    8.64773451394062    7.30047442033804
C         3.72522777226028    6.57267355211858    7.77342626424929
H         3.84407292655191    6.74820810195643    8.83236653636572
C         3.74908229187523    5.27680183555157    7.28093838628158
H         3.87834976424188    4.44565523831849    7.95896317468847
C         3.59491988647979    5.04157640209928    5.92611024532244
H         3.57135321429549    4.02772507390865    5.55136213286646

