95
CSD_code = IHONEZ | q = 1 | S = 0 | Stoichiometry = C34H52N8Rh(1+) | MND = 6
Rh        7.97483298137118    6.53553502525057    7.95832317387520
N         9.74204805136221    4.12029487748786    7.68567538287790
N        10.11509035574253    5.02523508604743    9.59354631714575
N         9.54634670890311    5.11861312147416   11.89458672672882
N         8.26805443059792    4.70476009786379   11.92922403713150
N         9.76445930266159    8.92740442321226    8.27690390588116
N        10.18079693401511    8.02241980807853    6.37815363781329
N         9.59965489238575    7.99173808551404    4.08535416812337
N         8.33060049507045    8.42662889487524    4.10370362260101
C         6.40018426496452    8.06948766250781    7.76224247483330
H         6.86313965635897    9.05312674688832    7.82179392544705
C         6.53622168280948    7.38988668456982    6.57115512378445
H         7.10546199390053    7.86461177338188    5.76875365814430
C         5.62485024063855    6.29119643020514    6.08257268762765
H         6.11137936814983    5.79513990936334    5.23775920496790
H         4.70933552010679    6.74803561280333    5.69353849314139
C         5.26665237727602    5.24047588911840    7.15116572768028
H         4.37096612837595    5.53952411900434    7.69513387952087
H         5.03561385368999    4.29959279582311    6.64854460713709
C         6.38950894358165    5.01186240201644    8.13735941210461
H         6.84544239333511    4.02491734475931    8.08009370057454
C         6.52025105709008    5.68920768203227    9.33072312950068
H         7.07372241424637    5.20887737183020   10.13970894522407
C         5.61154783482358    6.79357249272037    9.81116607018361
H         6.09311772921451    7.28490162558854   10.66138264203782
H         4.69033264233702    6.34081565529798   10.19064024607853
C         5.26929633868509    7.84841188910402    8.74108226990602
H         4.37480879369472    7.55677958681290    8.19107171521796
H         5.04225232342657    8.79082340222723    9.24272357847771
C         9.38841319104024    5.16522639026928    8.46239106232771
C        10.66890114942609    3.33673154160167    8.32222511091888
H        11.07697204791455    2.45279043342489    7.87778636807192
C        10.90325233122277    3.90396830904819    9.52524211617767
H        11.54362326895609    3.59751426686634   10.32528231497592
C         9.20584089263322    3.81830228916250    6.38512474196057
H         8.80781886647872    2.80252385329931    6.37113960871972
H         9.98199731805463    3.89577564764565    5.62123828070680
H         8.39727767443049    4.52169486167923    6.16820784862733
C         9.99987584337033    5.86589972138592   10.76465259273822
H        10.96729114349296    6.32343713649411   10.99749225693286
H         9.25402251366435    6.63263499695055   10.51826993757805
C        10.24510894986740    4.67720444132313   12.97784206832619
C         9.35436274319491    3.95832245381271   13.73499560906045
H         9.55585556746262    3.47117241584710   14.66598379090363
C         8.12818536052852    4.00279702301028   13.03567564388833
C        11.67277987462535    5.00686733215650   13.22129671756267
H        12.31161363843155    4.68268995634608   12.39967664276793
H        12.00364223709803    4.50814327348250   14.12746384920376
H        11.80604079151246    6.08096338130380   13.35593804059090
C         6.83001014152734    3.37462063967603   13.44778843216320
C         5.74404038727384    3.66985990263505   12.41272520450966
H         5.59964415554777    4.74209630844527   12.31413206962115
H         4.80535689418934    3.21607014134405   12.72002800087600
H         6.02429454037856    3.27014353385586   11.44179296719237
C         6.41404672031805    3.95117152027720   14.80675598756139
H         7.16423188026857    3.73983656164995   15.56428656325059
H         5.47208546859057    3.51104756992089   15.12410016516883
H         6.28658847671731    5.02947689438961   14.73935912027376
C         7.02944671875564    1.85901012098626   13.56971615472352
H         7.33913452243503    1.43759580105614   12.61555632535212
H         6.09852095450154    1.38513846550189   13.87054557628462
H         7.78855811605633    1.62622385476882   14.31199551686982
C         9.41334756044160    7.89372318728465    7.48389848833111
C        10.72883497484663    9.69312649882718    7.67536335184389
H        11.14130103256289   10.56572054303501    8.13781917876089
C        10.98989351775047    9.12656703334535    6.47782869539574
H        11.66378635680601    9.42106683056926    5.70116695092184
C         9.19233288966474    9.23961005085029    9.55966205553617
H         8.81246410967394   10.26243518654690    9.56018622043986
H         9.94219606006389    9.14922165644636   10.34791047720366
H         8.36491205906293    8.55136244668381    9.75145798795663
C        10.06955260983133    7.21089851142096    5.18730051892979
H        11.04001342212167    6.77168474626607    4.93475815521268
H         9.33246929979920    6.42981965661975    5.41406660036505
C        10.27505417599228    8.46749799871358    3.00370578306498
C         9.37434630093211    9.23083286638485    2.29987307762008
H         9.56179756537564    9.75102879400752    1.38469084873377
C         8.16945577530327    9.17776991642382    3.03026989866623
C        11.69120714058727    8.13038071041510    2.70943694815689
H        12.35663817933564    8.42884471494244    3.51976826850895
H        12.00048314196665    8.64865340485975    1.80668457670555
H        11.81001842916145    7.05882311531942    2.54517307002892
C         6.84564269503489    9.81971628564497    2.72945841201360
C         6.93590234105254   10.68744228531111    1.47453202537164
H         7.67616805730025   11.47427375896586    1.60048647299959
H         5.97313442279302   11.15339945929328    1.27982114674710
H         7.20467055442903   10.08792385017420    0.60807307207036
C         6.43410625433199   10.68514833203756    3.92706605126124
H         6.36793861390319   10.07724333921214    4.82564976059508
H         5.46658233009000   11.14434435122812    3.74097037954736
H         7.16442732631689   11.47429562536990    4.09360322215645
C         5.80625625500739    8.71158224863968    2.51756274253109
H         6.08509079618232    8.08621650272243    1.67226383572923
H         4.83060311733327    9.14724207187970    2.31773653391095
H         5.73936854635148    8.08697648510412    3.40436604313942

