68
CSD_code = IHONUP | q = 0 | S = 0 | Stoichiometry = C25H36Cl2N4Zr | MND = 5
C        -1.95014587469648    3.14404328192249   16.27833652530508
C        -3.55545616034778    2.27373684549335   17.57574983133082
H        -4.15165985531952    1.50047846306136   18.01599528746447
C        -3.57628575697044    3.61795532939021   17.74651942344466
H        -4.20671583636769    4.23868582380685   18.35025030599090
C        -2.19809879077622    0.71044806453816   16.20912950795518
C        -2.96352763207538    0.10434450315749   15.21149743867377
C        -2.56968932456589   -1.14629810205323   14.75811503087345
H        -3.14315331353995   -1.62178378945184   13.97624094888880
C        -1.45698505506856   -1.79292307588283   15.27651502891161
C        -0.74145615278573   -1.18106229831464   16.29644611107105
H         0.11177866377259   -1.68682032428111   16.72467000978022
C        -1.09750531945005    0.06866405730302   16.78176316304813
C        -4.15796631606879    0.79068677006309   14.62923571816888
H        -4.78176919873041    1.23622759969438   15.40232764251743
H        -4.75650510651779    0.08936199335704   14.05488844256127
H        -3.81539672779258    1.58288050418391   13.96151073829491
C        -0.34860472096852    0.70226624028000   17.91328071917957
H         0.39171947478727    0.01365820785830   18.31159489880906
H        -1.03037514040840    0.98013606243570   18.71757699094384
H         0.16449932151245    1.61064445397234   17.58757493213592
C        -1.02900049686370   -3.12329203485900   14.73805313959315
H        -0.50599549306914   -3.70105826080041   15.49630863560343
H        -0.35076364427579   -2.97675003569136   13.89710660865875
H        -1.88437961385505   -3.69324668716753   14.38344135469065
C        -2.26430195895733    5.50871162782338   16.80864931228830
C        -2.68089936646296    6.18723244073789   15.65905566387220
C        -2.38902478306557    7.54015196104969   15.55677978720349
H        -2.70904407193908    8.07966060384557   14.67735847610702
C        -1.69568711332997    8.21044272020292   16.55391157815133
C        -1.29659758725374    7.50801242010491   17.68318681037210
H        -0.75691061918093    8.02327962114693   18.46450762929981
C        -1.56887782465999    6.15647875220423   17.83281219087311
C        -1.10839182240975    5.40559088141215   19.04357934384362
H        -1.92271408459037    4.84915734547164   19.50488130479003
H        -0.69159011456324    6.08753787658652   19.77932336072162
H        -0.33305051008529    4.69519702217775   18.75100578054946
C        -1.36586920582111    9.66507958920042   16.41469055857070
H        -0.34889804624127    9.77843261732203   16.03915069410370
H        -1.42331845269876   10.16971832292369   17.37632360234329
H        -2.04096851445416   10.15403299586552   15.71698550477695
C        -3.48194016217808    5.48544627683515   14.60365170059834
H        -2.86857121780870    4.74832970511730   14.07475886213491
H        -3.85675682228665    6.20201578829478   13.87757656608124
H        -4.33166165133348    4.96328179917793   15.04603519215314
C         1.22933797608292    1.24313654913394   14.31142650642091
H         1.87714089162095    0.62426313975343   13.66592088758289
H         0.20101271789466    0.86386648155426   14.21309981925659
H         1.57528743529021    1.09109596572187   15.35897590565619
C         2.64185321428146    3.12857039502425   14.00086884222810
H         3.05867959592667    3.03511751932601   15.02521455040574
H         2.67434392713340    4.18259376179749   13.70219731250863
H         3.30744916041877    2.56414794210049   13.32502460413459
C         0.80145081689655    6.43840218223573   14.81328045144722
H         1.84296677402270    6.23614452253270   14.48646862986302
H         0.74836556383556    6.33460810103029   15.90143052709503
H         0.58437743588375    7.49116585717135   14.56373211747074
C        -0.09815190749369    5.71222521170679   12.73963890172394
H        -0.30952631066325    6.75672718056403   12.45270841427539
H        -0.84693353654475    5.07205168963922   12.26207169548851
H         0.90114236476008    5.45502814205531   12.32944253897937
N        -2.55585777380229    2.00765679516881   16.67724494385491
N        -2.58828895116285    4.12779246828255   16.94559807086251
N         1.28711239758170    2.63419339882068   13.91315964734241
N        -0.16164788233299    5.56125287055433   14.18199990368871
Cl        1.01667664780873    3.74859387392239   16.84770986223251
Cl       -1.75472372334789    2.67664840963508   13.19332258410062
Zr       -0.22585483427417    3.63594358272157   14.79101093067955

