41
CSD_code = IHOSAA | q = 0 | S = 0 | Stoichiometry = C19H17ClO3Ti | MND = 12
Ti       13.15988395231443    6.24023729108370    3.21506970393377
Cl       16.81148780308577    1.08051764766400   -0.00293556777556
O        13.99795478889950    5.91982336794058    1.66796187675248
O        12.86525961623311    4.51769048161786    3.51472604493914
O        13.60884778962282    2.47770175703089    3.94451093025955
C        11.31997776277897    6.39478278338102    1.74023622262330
H        11.22780814349142    5.81515087593601    0.82939469400301
C        10.77700150144971    6.05613592049817    2.99626204881084
H        10.20332941014836    5.16582818205304    3.21881180127347
C        11.04161896432459    7.11398229811851    3.88530895229046
H        10.65864333859064    7.19591487681347    4.89446169285997
C        11.71335207740652    8.12920148600244    3.16540245490940
H        11.92118730567159    9.12797699298262    3.52684494148468
C        11.90661890630068    7.68417713171380    1.84225555338539
C        12.48657217986468    8.47675463669045    0.70807759084765
H        11.68615080740086    8.86909831242699    0.07715491339233
H        13.12654907049374    7.84670662381221    0.08908328701598
H        13.06983057831043    9.31800700400705    1.08151879105098
C        14.54045031382656    7.92667300648716    4.06328317824361
H        14.58522695471290    8.95689767611037    3.72923764897871
C        13.76176480199668    7.43336237520187    5.14260970845759
H        13.09946578810937    8.02114841926961    5.76550434901368
C        14.15408549211702    6.10636832452287    5.38823892691123
H        13.80190329675411    5.47161328288955    6.19179916449883
C        15.19646017073780    5.78637895775805    4.48710745558928
H        15.76516739365305    4.86513923519383    4.48292324482584
C        15.45150225437595    6.91350147472800    3.68122025181609
C        16.56749035853805    7.06747649639909    2.69202325301957
H        17.37590618250120    7.64986551668582    3.13973843614443
H        16.22803471488647    7.59122879294563    1.79751989817995
H        16.96600872739991    6.09598749396511    2.40285602871804
C        14.61122503281432    4.80965049311417    1.32058577505338
C        15.40995677543849    4.80089129161292    0.16122530543194
H        15.48722515498088    5.71698294955571   -0.40693807690488
C        16.07718553895811    3.66766647836390   -0.24380637933375
H        16.68794810559105    3.68132746763865   -1.13299632360585
C        15.96232209926426    2.49798810026036    0.50073428490086
C        15.17429788789402    2.46478479164824    1.63287533242243
H        15.06444378700722    1.56444277122468    2.21879060485941
C        14.49733864805805    3.60694262447025    2.05481121219740
C        13.62461652399709    3.48499431018100    3.26871078852400

