130
CSD_code = IHOSED | q = 0 | S = 0 | Stoichiometry = C47H60BF15Si6Zr | MND = 12
Zr        6.91306352275925    4.41742899141038    4.77153258404829
Si       10.78214935283141    6.08201200722821    5.04834167465355
Si       10.36636682873406    2.24747218033225    4.45126494973061
Si        7.27291227090125    5.10379723367657    0.77473816062329
Si        5.51201501649426    8.45924170424674    3.53913542868349
Si        7.25877827063547    5.10253504836671    7.90164990632236
Si        3.56368777733703    4.49083882671852    6.96090030237762
B         4.88756777856300    0.71835726736044    4.37136625437856
F         6.26385443982612    1.78768840599647    2.19520187453726
F         7.65843089207072    0.49144318274135    0.28833662206590
F         7.74886285569495   -2.25063090814514    0.27263731374373
F         6.37911056941009   -3.63676742129368    2.19145928058214
F         5.01097437046852   -2.36284979806475    4.07622036853234
F         6.35925836922295   -1.06337222277067    6.05073534567077
F         5.45520906013733   -2.51902366165624    8.09915531227618
F         2.81270119695675   -2.40620514219431    8.82149037449233
F         1.13124308913451   -0.73455717838173    7.44685787968978
F         2.02967449904082    0.74378753333396    5.43757103919481
F         2.66839920295832   -0.58313863793754    3.06731236927621
F         0.71063505483063    0.57726333678046    1.63473597539193
F         0.71366203310387    3.28803732649286    1.25183235229841
F         2.78627974448546    4.77155823600739    2.22591904004660
F         4.88226488585225    3.59513134734576    3.47025834714342
C         5.91886009461300    1.78282420564778    5.10399525565102
C         7.83656726491311    3.71231129801153    6.75002960133851
C         8.45603368588914    5.77516325898339    3.39981943342961
H         8.39087339684053    6.84502403589490    3.25949466429503
C         9.31945450668458    5.13582303784369    4.32628425971753
C         9.25488209543876    3.72312985855799    4.04730433424826
C         8.35510178911374    3.55667979326718    2.97282073389271
H         8.27305426224628    2.64497640701303    2.40530153575854
C         7.83758184277301    4.81466415783111    2.54931034820828
C         6.14483955912355    5.84797670704222    6.55746669730993
C         6.64719731458820    6.78552191006454    5.63905660054972
H         7.47969914499947    7.44947858085682    5.83015886045986
C         5.78954323091537    6.86982034064343    4.50448007446430
C         4.76604190774029    5.92561119439940    4.73216805974395
H         3.87425469268637    5.85349182750981    4.12696860498875
C         4.97096117053522    5.24702537283968    5.96478236769279
C        10.41620859574131    7.96152573504215    4.99264321841033
H         9.56272591459198    8.24875895995503    5.59824933780441
H        10.23476565305292    8.30706935068136    3.98049749336939
H        11.27285292661911    8.51209326844549    5.36891798520761
C        11.40590841468540    5.65846291712027    6.80771761311554
H        11.47360207088647    6.55462098757790    7.41567616956331
H        12.40258613450822    5.23329380838296    6.76304046924617
H        10.77113885628394    4.95619932070274    7.33394953807714
C        12.23036886583184    5.78210820220441    3.82984890696220
H        11.94044706312251    6.00405798120914    2.80740388430861
H        12.56463327181218    4.75038436026929    3.85600782399428
H        13.08195109996447    6.40981917837057    4.07356967436300
C         5.66531063182874   -0.22462501918160    3.27838948540077
C         6.32453389212966    0.42718531879319    2.24277027155980
C         7.02804932846064   -0.21598547577572    1.23715611511439
C         7.07146377612774   -1.60449362519338    1.22417126013664
C         6.38034488565847   -2.30193990497462    2.20624815930582
C         5.68590564251467   -1.61339735746805    3.20006583808791
C         4.22719199864093   -0.14823078373789    5.59174011348085
C         5.04911696600647   -0.98204550970157    6.34883069150200
C         4.60253958811935   -1.74392835248533    7.41904505762296
C         3.26556254867976   -1.68466197808508    7.79273156414588
C         2.41645899100598   -0.84254872886354    7.08996469370265
C         2.90825314389180   -0.09302390559617    6.02504024506722
C         3.76268585271183    1.46872115025258    3.44623642132310
C         2.71084840905976    0.74049723115793    2.88744638949730
C         1.69347097854128    1.32174672249921    2.14105434053347
C         1.69947481530941    2.69751993755394    1.92815388491740
C         2.76196118569211    3.44710259874032    2.41358054613219
C         3.77786200639459    2.81273727939171    3.11749523937330
C        11.59267546732361    2.38227039256233    5.90199281327631
H        12.12237090947065    1.43997257981632    5.99962528117129
H        11.10656895754793    2.57600415681634    6.85106780152626
H        12.33290743261663    3.15557038351511    5.74118969941242
C        11.36371550330782    1.90170074872222    2.85418454692545
H        11.93909860083205    2.76733729183720    2.54203844559314
H        10.71276849088135    1.63499014476101    2.02747696310164
H        12.05896208078869    1.08084816287486    2.99884026711977
C         9.26705505094061    0.71682606346357    4.79669407013109
H         9.87476628955459   -0.18240873284552    4.78979598044920
H         8.49091230921027    0.57642195870266    4.05056744516095
H         8.78999495193676    0.76386294844979    5.77044141597329
C         7.77323304713210    6.86592063404708    0.23577691600893
H         7.53745853966144    7.01430118371375   -0.81308529914450
H         8.84151840068815    7.01970359417361    0.35291194767935
H         7.26220080995931    7.63996659504014    0.79525808815063
C         8.24485392072643    3.89882739904324   -0.34406066868216
H         7.91520258418705    2.87363117815237   -0.22483866639331
H         9.30906517425121    3.92804851440602   -0.13056729952038
H         8.11395732620998    4.15726119560035   -1.39020205368903
C         5.40493910927044    4.80584857440596    0.54336793161046
H         5.09506884131345    5.09015904564339   -0.45687183741350
H         4.81634839597667    5.38643196508064    1.24424590602190
H         5.15983172554536    3.75541168861680    0.66942927309356
C         7.13333928148523    9.41881536852624    3.20812816981452
H         7.79369886550364    8.93140460924913    2.49904976303415
H         7.69190846310578    9.57746640543926    4.12512147516223
H         6.89874516831264   10.39812472949365    2.80289633056028
C         4.51180646737588    8.20748626899129    1.93428802475001
H         4.17482922556352    9.16925881406856    1.56010344309782
H         3.62649619642745    7.60527571820105    2.11171263797372
H         5.07955859749363    7.73290824048853    1.14274287540645
C         4.45860263981483    9.55909099115873    4.70200644514166
H         4.26654060748123   10.53350534649334    4.26339832823416
H         4.95519263666258    9.71861590076125    5.65439647598302
H         3.49823903368191    9.09807374564346    4.91158414312470
C         8.51138661901576    6.47414917401281    8.36864957344816
H         9.21712945480360    6.12130439949579    9.11226961230521
H         7.99369241935502    7.32816016506073    8.79475487841699
H         9.07702902485815    6.82096730494640    7.51348191752571
C         6.45295161719993    4.69392227885472    9.58979740221409
H         5.55698798583683    4.09460665892796    9.51021356828829
H         6.19624022048269    5.60232028489090   10.12529629142681
H         7.16177468709108    4.14792811486967   10.20428819470139
C         3.96946284525681    2.82434589636418    7.82562810448405
H         3.54101601070354    1.99057966819615    7.28145133031984
H         3.52446372849493    2.81095646189965    8.81518580093176
H         5.03113706111952    2.63243483570519    7.94408754522162
C         2.04511879819620    4.16721457966957    5.84665801773623
H         1.16557117474363    4.03406698586312    6.46754815416873
H         2.14951558816253    3.26588581840583    5.25220376518629
H         1.83922269928468    4.99486099691276    5.17655084908216
C         3.07244864774644    5.78581252325920    8.27829670756450
H         2.69854483474700    6.69225973543917    7.81190909545289
H         3.91928050712821    6.06426842661248    8.89606126314516
H         2.29287097984378    5.40669168063895    8.93187977853126
H         7.47660681155055    2.74388337128082    7.12011716737254
H         8.92852581019013    3.63746501027008    6.73764139378160
H         6.63429734702450    2.26385730582278    4.41568370328169
H         6.50506208568752    1.23369071105740    5.83646475481389
H         5.32856139077872    2.53334049509130    5.64083743197434

