57
CSD_code = IHOTEE | q = 1 | S = 0 | Stoichiometry = C20H32IrN3P(1+) | MND = 6
Ir       -0.48214029078420    1.76961386339674    4.39081845989892
H        -1.75505776071248    2.58725675955752    4.20800884590775
P        -1.60600071977568    0.50770408597134    6.01418703696592
N         0.35750108626504    3.00314335522980    3.15556221246943
N         1.27057185368484    0.74790323103461    4.52438859952012
N        -1.01127657720224    0.46742285185184    2.77961675458361
C        -2.45633105803190    1.55403046918813    7.27465931614661
H        -2.06898925509118    1.29745647253866    8.26323700383568
H        -3.52420623282302    1.32830459548913    7.25754020714324
C        -2.25489650684982    3.04915481881638    7.01657765485951
H        -2.70596049350266    3.31226813053891    6.05931875412845
H        -2.76554935387798    3.61297704518709    7.79924989624734
C        -0.79560037258126    3.41759256188590    6.99907159259822
C         0.05521978734769    3.01775678110550    5.96307463890284
C         1.38495556387304    3.42754667462319    6.02359887832359
H         2.07774773436162    3.16443766984214    5.23343878265844
C         1.87437639203303    4.18254753284164    7.07713241351990
H         2.91278863228696    4.48013449350402    7.08708021685939
C         1.03147681698050    4.55103769113467    8.10713174462343
H         1.40037896302316    5.13435302708558    8.93656582524971
C        -0.29537899953460    4.16975530179885    8.05663999373585
H        -0.96356311367487    4.46569084294957    8.85301207869520
C        -0.61641013053202   -0.63828178118303    7.10053798328998
H        -1.30331625080292   -0.99721089111651    7.87681435569916
C         0.51796431992050    0.12651059794698    7.77687869865805
H         0.14759033618238    0.99095965425205    8.32360845820294
H         1.23618706364997    0.48520471183533    7.04451435570526
H         1.03718801762269   -0.52315802571075    8.47923367677212
C        -0.07993068980040   -1.82786612709006    6.30965820371678
H         0.48540861517525   -1.48989292998777    5.44381077662084
H         0.58007898622856   -2.42438656285418    6.93718558628220
H        -0.88283551925216   -2.47298087717411    5.96103136772526
C        -2.97266104713434   -0.59296414948999    5.37058989514468
H        -2.48823715219909   -1.25561930267407    4.64195150745733
C        -4.00788889446095    0.25433155630488    4.63327945350903
H        -3.53092918501173    0.90179141516329    3.90083142135270
H        -4.56494080526082    0.87942118589614    5.32680807972896
H        -4.72031734142387   -0.38899633431181    4.12012937583223
C        -3.64863864306874   -1.44366252637161    6.44338721887849
H        -4.04270946506862   -0.82857612326213    7.24874930035636
H        -4.48453923811727   -1.98132680881518    5.99900123131401
H        -2.97323810667264   -2.17977803182762    6.87002298236465
C        -1.46403198646865   -0.07785675312029    1.87779890981552
C        -2.03659839262132   -0.76333370317570    0.76695911843319
H        -3.03482536287289   -1.11246268648875    1.03160954890840
H        -2.11006086082811   -0.08498666024342   -0.08302128784963
H        -1.41741225678013   -1.61745554273964    0.49306611111145
C         0.79572173768757    3.86024371761008    2.52384382759393
C         1.33571290515188    4.92847236722504    1.74732184081754
H         1.60011509128559    5.75369759696924    2.40908111425693
H         2.22549898367463    4.59843733569897    1.21124221492024
H         0.59134653598831    5.27381208587571    1.02979507648369
C         2.33755425044483    0.33120343399607    4.45756088387097
C         3.66018964451914   -0.20132261489413    4.41565172185538
H         3.93671985699593   -0.43655232324400    3.38781571667393
H         4.36092834306240    0.53093389953582    4.81781392250313
H         3.71025054536897   -1.10913705810306    5.01772644512493

