77
CSD_code = IHOYUB | q = 0 | S = 0 | Stoichiometry = C40H30Cl2F2N2Pd | MND = 4
Pd       -0.00003926486561   -6.67774949500800   -2.37265430871617
Cl        0.29698777073790   -5.10674720671920   -0.80466335177943
F        -4.50244366231969  -11.52217597033818   -2.70908331979214
C        -3.20102837193255   -6.90886085408905   -3.36796516618702
C        -3.82382637025763   -6.29058526416167   -4.44412833992658
H        -4.08028083363289   -6.87280944408786   -5.31862862524643
C        -4.14587599413265   -4.94559354506184   -4.38077286208383
H        -4.65214775046084   -4.47556237224685   -5.21129232753013
C        -3.83658351057415   -4.20965829273739   -3.25044420026884
H        -4.10907816266351   -3.16796460773219   -3.19557598662254
C        -3.19921872223307   -4.81329364242527   -2.17914019805334
H        -2.96711979657361   -4.24298388459542   -1.29220776116098
C        -2.88536811118805   -6.16440705480880   -2.22639247187504
H        -2.50667055642397   -6.66805717183115   -1.33684059114818
C        -2.89482276791431   -8.36084512156517   -3.38473293935376
C        -3.88091877992231   -9.28191536622381   -3.07499802969197
H        -4.89032894793213   -8.95798519888466   -2.87774101186951
C        -3.54374456821574  -10.62029517121737   -2.99824049846398
C        -2.25248760315765  -11.05689406558809   -3.20773470606954
H        -2.01935156844913  -12.10655135229479   -3.12441571473828
C        -1.25290828234433  -10.14580493882667   -3.53662648846345
C         0.10726527542049  -10.67189657000758   -3.75552353247222
C         0.78407232425686  -10.48276550137754   -4.95484641896320
H         0.34578709463103   -9.87450181455342   -5.73108044563797
C         1.99035045013541  -11.11913037124640   -5.18504818086801
H         2.49498839339650  -10.98434762367263   -6.13085345646770
C         2.53937972593281  -11.94139185349637   -4.21675814627515
H         3.46949352221426  -12.45654576013790   -4.40887654206231
C         1.89240796353583  -12.09992232980782   -3.00184377772432
H         2.32654547529123  -12.72470131189943   -2.23529419580688
C         0.68282926948902  -11.47290401557413   -2.77260401682853
H         0.17472574514261  -11.59045412884217   -1.82780513097845
N        -0.61825707458640   -7.79831430982986   -3.88667639448012
C        -1.58307732896485   -8.79147125440685   -3.64131198639700
C        -1.12627614632888   -7.68665403463788   -6.30631968162876
H        -0.39092821174514   -7.93987268431587   -7.06938761595656
H        -1.74212193177339   -6.87482750064677   -6.69344768605935
H        -1.76141709697425   -8.54973764387869   -6.11868135458679
C        -0.44793745849622   -7.24445771658885   -5.04704034593285
F         4.50248623340548   -1.83338896059494   -2.70920892245993
C         3.20101367834756   -6.44672860421569   -3.36784985194669
C         3.82375107714440   -7.06495803089177   -4.44407260533199
H         4.08004736279095   -6.48271265743396   -5.31860459234423
C         4.14577876760465   -8.40995779540019   -4.38080882985843
H         4.65191020556813   -8.87997661833273   -5.21142343540509
C         3.83651790568911   -9.14595055899741   -3.25050977085155
H         4.10908804040433  -10.18762139632805   -3.19566837863900
C         3.19921867606835   -8.54236198089212   -2.17914562087324
H         2.96730273489701   -9.11268014765488   -1.29216960361090
C         2.88540802418014   -7.19123159014716   -2.22629732940622
H         2.50679230239619   -6.68761940353231   -1.33668998719282
C         2.89481004285290   -4.99474293757442   -3.38462325132946
C         3.88091577955188   -4.07367325799178   -3.07491828567836
H         4.89032534079995   -4.39760440096328   -2.87766259367488
C         3.54375965581697   -2.73528469360478   -2.99823987888932
C         2.25250501623537   -2.29868408582572   -3.20776114606262
H         2.01938109066854   -1.24901963969177   -3.12450092666569
C         1.25291743682147   -3.20977623809064   -3.53662887979120
C        -0.10725762704198   -2.68369234925300   -3.75552045475232
C        -0.78404667314021   -2.87288636733232   -4.95484146019671
H        -0.34575740420360   -3.48121944577065   -5.73101436198267
C        -1.99031658704112   -2.23653255027184   -5.18510179869125
H        -2.49497065641174   -2.37142649250345   -6.13087767003187
C        -2.53936833089156   -1.41423257224941   -4.21685734257553
H        -3.46949003667022   -0.89910820695808   -4.40901125000364
C        -1.89242499770815   -1.25565304394869   -3.00193265823235
H        -2.32654289812388   -0.63077617653101   -2.23545367231837
C        -0.68284263438908   -1.88264837950384   -2.77264273629686
H        -0.17472697820700   -1.76498920748692   -1.82786728596084
N         0.61828164130033   -5.55727772662286   -3.88667782892859
C         1.58308245348176   -4.56410984993983   -3.64128986591692
C         1.12631235713517   -5.66891556143281   -6.30631428247542
H         0.39095061378981   -5.41556446698274   -7.06932656616511
H         1.74204252089502   -6.48079375760763   -6.69351470842081
H         1.76155781282763   -4.80591590923905   -6.11864721519975
C         0.44798731152953   -6.11112764854779   -5.04703799814294
Cl       -0.29697339452808   -8.24912084423179   -0.80490914546907

