55
CSD_code = IHUBOD | q = 0 | S = 0 | Stoichiometry = C28H22N2O2Pt | MND = 4
C         2.76346278381723    6.33162876984045   10.06011537875637
H         2.48687659751794    7.24929789291649   10.56203344366472
C         2.73653919035843    5.11946583022149   10.72174210323614
H         2.43680939038402    5.07313340702798   11.75616822551000
C         3.10308237148431    3.97263235832412   10.02739438654862
H         3.09525013928916    3.00929027071641   10.51443403512767
C         3.47797344180531    4.08724536116173    8.70385975203239
H         3.76816703353522    3.21445765503926    8.14207101536015
C         3.48527270915166    5.33773942411652    8.08513523499691
C         3.85290720737848    5.60402919477919    6.70774556261864
C         4.22688157276187    4.63352559818667    5.78356047961230
H         4.26342503406282    3.58656316004293    6.04442157471345
C         4.54919393340581    5.03703510177086    4.49974159474666
C         4.49793514307243    6.40955832223824    4.15176446493201
C         4.09791685930194    7.37480477198188    5.06779582827313
H         4.02375669565369    8.41342521817481    4.78317366077542
C         3.77996168121501    6.98211392491898    6.35511825777658
C         4.95042438380086    4.32978710509524    3.31488321817347
C         5.18800296798831    2.99135896357368    3.03508419232166
H         5.05982105585377    2.24134939051985    3.80108643624241
C         5.59555183222610    2.64254949430554    1.76221951809548
H         5.78268635246419    1.60602436723736    1.52359312105528
C         5.78178938268151    3.61139835587316    0.77983536077998
H         6.11663457159441    3.31105637381937   -0.20216256622686
C         5.55195442591421    4.95075102298595    1.03472407375242
H         5.71758967108330    5.69593259681121    0.27131805627712
C         5.11806484238465    5.30385749495250    2.30356189944719
C         4.89458303883956    7.76690632712151    2.12471303570986
C         4.25266965594011    7.89501486517312    0.89639628157034
H         3.69875413652464    7.05946965821274    0.49526149865812
C         4.31002647236638    9.09325583433760    0.20898505346781
H         3.81000347208064    9.18694037604029   -0.74379989002764
C         4.99410541342685   10.17283289418816    0.74236296179958
H         5.03258333652896   11.10833140212358    0.20473353886549
C         5.62766283538409   10.04853953804671    1.96783000751770
H         6.16474026015313   10.88705676021470    2.38610319163472
C         5.58619004151937    8.85125205823356    2.65760676032116
H         6.09511386403009    8.74491981864086    3.60336649370843
C         1.86388646223509   11.20903525395676   10.79566480589637
H         1.67707053621037   10.44356168178263   11.54476350319639
H         0.94283031949008   11.75352552125766   10.59913949568738
H         2.60090502382027   11.91254560806436   11.17744260359164
C         2.37213587804558   10.57100163595916    9.51792785818770
C         2.62702486506048   11.43245759820742    8.44509394488077
H         2.45539780249965   12.48616253870104    8.60442036249634
C         3.08284490950619   11.04177564058676    7.18835602934354
C         3.30923705061624   12.14152416196246    6.16977811968710
H         3.63465607552261   11.70553539756172    5.22878147799704
H         4.07028547304451   12.83050336202328    6.53003739280209
H         2.39025160752401   12.70078570051216    6.01022444266128
N         3.12520577804017    6.44779207623347    8.78338347382667
N         4.84155499923482    6.55377370313013    2.82506698882915
O         2.52822773326104    9.32486336934820    9.52229753510434
O         3.33390806726654    9.86712274385074    6.78561187070979
Pt        3.19521362167196    8.15590304790869    7.84403285327288

