58
CSD_code = IHUCEU | q = 0 | S = 0 | Stoichiometry = C29H21F3N2O2Pt | MND = 4
C         2.14185647816783    6.63201338295661    5.49607105175706
H         2.93872560680910    6.14193878831431    4.95113679993694
C         1.03897026026223    7.15138721351194    4.83956340872413
C         0.03196547181526    7.77409886945444    5.58204126037976
H        -0.83471540811309    8.18327235276595    5.08654721272878
C         0.17834090447721    7.84520043577282    6.94906091790497
H        -0.58073434354170    8.31769624765245    7.54957345476587
C         1.31182362470675    7.30598064453896    7.56634787442942
C         1.59372432253108    7.31774061376122    8.98176670591975
C         0.76817916036628    7.88524610520532    9.95234799073910
H        -0.16174750512363    8.36762402134139    9.69265122493058
C         1.16842635977310    7.82276068385016   11.27293694443015
C         2.39271683238907    7.19282036139517   11.61833865944404
C         3.22797341877296    6.65121031360518   10.64805172119337
H         4.17489322350203    6.20760645956860   10.91562946219198
C         2.83319986607027    6.69964514426350    9.32442196824453
C         0.59337854077846    8.29660560550829   12.50260425708800
C        -0.58342983477062    8.96348319273680   12.81275309816799
H        -1.27610351551420    9.24242436849811   12.03318320796725
C        -0.84938190153386    9.25573702309937   14.13647005297322
H        -1.75822401366952    9.77646309852700   14.39861794416147
C         0.03348019081133    8.87797252659223   15.14440214074712
H        -0.20835961172359    9.10621255727854   16.17183773365251
C         1.21178865626193    8.21255338254797   14.85973811074317
H         1.88080043765474    7.90760712130615   15.65006716645291
C         1.49501381889733    7.93845961138049   13.53059468620222
C         3.67943995132317    6.77112348458534   13.68315295610988
C         4.36268963530145    7.58357653102775   14.58264896140094
H         4.04723435289935    8.60661420464797   14.72246803871629
C         5.45066182533401    7.08379309021867   15.27431928657553
H         5.97770436911738    7.71836388069280   15.97118653264283
C         5.87129843396418    5.78066797338296   15.06763746089569
H         6.72434392303229    5.39587715163692   15.60581619147853
C         5.19486604072934    4.97323811863030   14.16831118700825
H         5.51776530211040    3.95555751755151   14.00660176837558
C         4.09880010255613    5.45964227950088   13.48027289224970
H         3.55732954197538    4.82754585123154   12.79331212152501
C         0.91222858514579    7.07168012386338    3.34866918509950
C         6.36706085862061    4.16548646707397    4.61207681823423
H         5.66141257146674    4.45480463504669    3.83737279524378
H         6.49460798796388    3.08523218862887    4.59862888942978
H         7.33242442466197    4.62445862206082    4.40930863203927
C         5.85931099910151    4.60965342447280    5.96687453116119
C         6.65569846798212    4.29544487110696    7.07526328258601
H         7.57264568289043    3.75764739066952    6.88919595505036
C         6.36196599443627    4.61887391302230    8.39635441429865
C         7.35824592571096    4.17946357956918    9.44947901341625
H         7.02107168598216    4.50688993997701   10.42946306655786
H         8.33587741265105    4.60845212744121    9.24221986085666
H         7.45299108575858    3.09585543689464    9.44384229535818
F         1.86624084137692    6.33037774816123    2.77327923540661
F         0.97383098926920    8.28702526434482    2.76987362879770
F        -0.26565470514367    6.54482698949963    2.96699571037925
N         2.27907282755183    6.70298459123335    6.81569154355831
N         2.57517081838474    7.27351637495956   12.97802841633468
O         4.76494591954660    5.22563127328137    5.99608401387062
O         5.34784382969323    5.24325820262441    8.83685282603081
Pt        3.81491327854597    5.97127662749959    7.76226343343579

