65
CSD_code = IHUCUK | q = 0 | S = 0 | Stoichiometry = C33H26N2O3Pt | MND = 4
C         6.47272995727083    4.73535894306369    2.65997270757322
H         7.06275173494279    5.62538599158988    2.49012826951946
C         5.14883215722188    4.80557499026217    2.97843076385212
H         4.66202852119787    5.75860637107416    3.11241253225748
C         4.39726807721321    3.61297004684916    3.07049756465237
C         3.00448805213436    3.62089346772447    3.27111338718070
H         2.51008430373379    4.56901758469126    3.42502580405641
C         2.29045402673380    2.45431053104541    3.24262121394629
H         1.22175967580594    2.46282266312397    3.39738459818533
C         2.94084422091277    1.24589523484872    2.96143079697217
H         2.35926752488390    0.34098603190434    2.86620699744833
C         4.29914102825670    1.20570364376763    2.78931942300026
H         4.77393704912782    0.28002405683075    2.51135121653053
C         5.07774628068742    2.37597543369242    2.90081965694432
C         6.50001081156244    2.39966368220875    2.77997236691794
C         7.40209559438835    1.26673844906295    2.85934918194168
C         7.10873461405410    0.02256509056177    3.41656007476054
H         6.16536968128541   -0.17806459363286    3.89883503748253
C         8.08964914640900   -0.95307683488822    3.41387247243327
C         9.37371870395127   -0.67626468166906    2.88312874717796
C         9.70181961213327    0.59519612475054    2.42808877611734
H        10.70682360774335    0.82731173841716    2.10943633800855
C         8.72543511794462    1.57305955719437    2.41537473273567
C         8.12544465516711   -2.31240895376072    3.87905773031359
C         7.18403335232850   -3.14779411768803    4.46381324288409
H         6.18953830378777   -2.78581059715965    4.67808049159241
C         7.54539867579133   -4.44760744701495    4.76082057978529
H         6.82824393073447   -5.11264534770358    5.21882295412527
C         8.82123788187626   -4.92101146242558    4.46631969641067
H         9.06998392774983   -5.94699541914559    4.69450780979233
C         9.77536604575135   -4.10841997349663    3.88216072589175
H        10.75578746665772   -4.49002839913233    3.64023255926876
C         9.42598783469888   -2.79562089713680    3.60428619406762
C        11.51405865776891   -1.87943709484458    2.62507588429927
C        12.46982224345980   -2.37366731915382    3.51097450992705
H        12.17129886810459   -2.68151221348563    4.50145355296055
C        13.79155084740270   -2.45002786655111    3.13302287627309
H        14.54149243964777   -2.82943611775936    3.80871090458559
C        14.19611235305869   -2.02215265428944    1.86684953975141
C        13.24338354310014   -1.52311379188188    0.98522120889943
H        13.51998835963733   -1.18634895501339   -0.00132666122131
C        11.91362125169413   -1.45976614722189    1.36281923997573
H        11.17750413982646   -1.08606564392498    0.66769970603393
C        16.00145723532470   -1.70291440246880    0.34866515702557
H        17.07676556249011   -1.87318554706153    0.36676303212157
H        15.80743133012897   -0.63717544807188    0.18986091712120
H        15.55853856082205   -2.27950399759952   -0.46991990193889
C        10.13369739588516    7.65732762221286    0.91706952032011
H         9.15005423680432    8.02258246813834    1.20175876245685
H        10.32027261535954    7.90117548041683   -0.12661851044304
H        10.89005812463532    8.15170407154971    1.52319411825484
C        10.20747697785910    6.15697955657436    1.12037755774310
C        11.41229469054087    5.53429701352490    0.77469544785547
H        12.20188659816885    6.16064137181307    0.38819424427273
C        11.67274135817811    4.17107756244588    0.88820179354316
C        13.04613163292305    3.69755883584579    0.45284412184251
H        13.13033576562940    2.62663477427206    0.61874956348134
H        13.81782121798385    4.21317115542591    1.01989693088974
H        13.19638493691759    3.91226779914283   -0.60311367978402
N         7.13729743618230    3.56778900192600    2.56553937640498
N        10.16741093677702   -1.79336940200404    3.00769461514577
O        15.52724560577829   -2.13360142764865    1.60093343640127
O         9.18666741122805    5.59019569164086    1.58156603232731
O        10.89474202566204    3.26630592733517    1.31291404605433
Pt        8.99844406689138    3.48405878889979    1.97489801359457

