76
CSD_code = IHUDIZ | q = 0 | S = 0 | Stoichiometry = C30H40N4NiS | MND = 4
S         2.38985159937676   11.61315814186704    5.71522442621342
Ni        1.60451486705251   13.50172931522879    4.83540898157265
C         1.40187786778807   15.47305087367632    4.73351490893945
C         1.61827810413514   17.64694614893309    5.19444060977351
H         1.91999673910035   18.51640155037093    5.74028808865531
C         0.92975395197167   17.54212725154401    4.03522086133079
H         0.52970428565392   18.30417223188635    3.39919170733725
C         0.15346164511260   15.64362046552360    2.60732302388032
H         0.18390019570399   14.55655733534984    2.75706321424637
C        -1.29855387110614   16.10577658889529    2.52388496404474
H        -1.81004189190422   15.90401498876850    3.46219618115376
H        -1.81147878313603   15.57356431001495    1.72714245877514
H        -1.35830251900002   17.17198384375541    2.31767949309027
C         0.93880594446624   15.99415202036389    1.34462490958944
H         1.95577580172561   15.61570694421058    1.42306582465476
H         0.97652661687158   17.07136048402280    1.19782268344244
H         0.46714702059370   15.54639775094678    0.47377573750291
C         2.59947994255708   16.02822580757918    6.82642280109771
H         2.71347381153471   14.93396081297312    6.80564269409299
C         1.75597853946656   16.41908883065262    8.03595313567341
H         0.78660820567674   15.92880015021268    7.98546333620522
H         1.60692581405726   17.49656422359627    8.07459720130134
H         2.25717614516170   16.10220214521498    8.94556285223656
C         3.97898033355681   16.67953286733664    6.87231588242348
H         4.53076321464956   16.47829737704611    5.95692605985269
H         4.54024099112730   16.27362853405327    7.70908073313972
H         3.89966714500908   17.75706992779336    7.00124458809556
C         2.69040348647638   13.11731375165697    3.21828308321757
C         4.38027144001026   12.65778662666623    1.83182043642067
H         5.37038514588399   12.70897842393789    1.42839519807993
C         3.31037141224242   11.93489605436089    1.42709292275097
H         3.21051990919276   11.25023552311294    0.61036841190040
C         0.97932662247595   11.60662348648817    2.30294045761772
H         0.45093752363713   12.06529556051318    3.15881143728421
C         0.22599117350808   11.89138633676533    1.00621599126132
H         0.19900108827234   12.95986866184180    0.80314510012842
H        -0.79453994403716   11.52666038515476    1.08490841207833
H         0.70457195247849   11.39124148307603    0.16649967503322
C         1.10784424084767   10.10998980278722    2.57100943711774
H         0.12076195151235    9.66468493946243    2.65946294315428
H         1.64288539822457    9.95360666885990    3.50467115585813
H         1.64454601655516    9.61299297184458    1.76540448532917
C         4.82925784770510   14.19565974940838    3.76419215964560
H         4.15461831948903   14.62672793370185    4.51734445788364
C         5.48169159409278   15.31474885350460    2.95721586160612
H         4.72438165238578   15.91325681693127    2.45422838630180
H         6.15995595874956   14.91074003053945    2.20900035587580
H         6.05200889255237   15.96309121158223    3.61745027441139
C         5.85522750281451   13.31872180661512    4.47766912573765
H         5.33715161039274   12.53493876567565    5.02540069603153
H         6.43152971735426   13.91195975174175    5.18262457003479
H         6.53769910231884   12.85930051979105    3.76567030498646
C         0.32424731946855   13.41132133217658    6.21087565588097
C        -0.98192810075996   13.53765390109650    5.73095210619915
H        -1.16852228312921   13.69360055618358    4.67039855017428
C        -2.07368441381911   13.47542610221735    6.58063700280955
H        -3.07347167927770   13.58831142256335    6.18222295066006
C        -1.88215509844766   13.26884523195705    7.93553688580174
H        -2.72951453188433   13.21731696737985    8.60489573714447
C        -0.60251254130371   13.10007522186426    8.42418378739069
H        -0.45417814214852   12.87727865751948    9.47174586398622
C         0.50631939124923   13.16512036294999    7.58090155139760
C         1.84079730160285   12.87935299059315    8.11693239716195
C         2.21988419863878   13.26658907015904    9.39677577237422
H         1.52599687983813   13.83597151621709    9.99997374149378
C         3.46562149598876   12.95051574315923    9.90677998188496
H         3.74152898057150   13.27133320575441   10.90143381522720
C         4.35294608526532   12.21247237404053    9.13850272224750
H         5.32387362299132   11.94691969029292    9.53284479355696
C         3.99886116493001   11.81838154014897    7.86498624834465
H         4.68253419781576   11.23700660611319    7.26242030507232
C         2.75862824232936   12.16015443401979    7.32790892422177
N         1.90167488694835   16.37360966675722    5.60404263132843
N         0.80527230458627   16.20512471270357    3.77014522761278
N         3.98132237438826   13.37563317277515    2.92750885588114
N         2.28794701192196   12.22698848350993    2.28689179406076

