103
CSD_code = IHUFOH | q = 0 | S = 0 | Stoichiometry = C45H54ClIrN2 | MND = 6
Ir        3.28540865298374    3.48592326487276    2.20495962252665
Cl        2.77369485451946    5.71087943201438    1.67793984640339
C         1.79946851028679    3.79262403541279    3.56637609280546
N         0.53300434330731    4.08733131338054    3.20982555749231
C        -0.09821633493025    5.04580146121298    4.11908529436375
C         1.00693638055976    5.31780230416236    5.16487156208629
N         2.05144460382277    4.37878646018018    4.75305231858175
C        -1.27497181434402    4.52893006160438    4.90862741151613
C        -2.52780326521972    4.12101666372986    4.54545724214793
C        -3.43323821573694    3.75444795484361    5.56297139557297
C        -3.11417065310456    3.81697806286543    6.89585458508015
C         0.36606288248295    5.04879965009569    6.49998054550444
C         0.79346849896863    5.23378146411918    7.78342782768554
C        -0.09432569132959    4.92375115939219    8.83643102127810
C        -1.35920265619481    4.44041093782088    8.61900629652792
C        -1.83449173403801    4.25417321667050    7.30214319918993
C        -0.94072367305922    4.58133537160434    6.27346497499843
C        -0.28098130656611    3.48724752293182    2.20974314193575
C        -0.84082813956869    4.27745733329159    1.19430033483766
C        -1.78251622837186    3.71111166269044    0.34395365644833
C        -2.16925552772236    2.39442582696498    0.47523421796251
C        -1.58377292102695    1.61305074925917    1.45012248652899
C        -0.63568762273637    2.13227471120738    2.32115143473505
C        -0.45989081833892    5.72006929843421    0.95831403964165
C        -1.65188296647789    6.65095024010808    1.20036972668498
C         0.08005982953891    5.90225673944300   -0.46249231505201
C        -0.04756866544399    1.20933653728436    3.36314313045950
C        -1.04053657381660    0.97193159464598    4.50456759279182
C         0.35700256271730   -0.13533253694445    2.74935073077461
C         3.17486657732952    4.14659624892830    5.59512950928479
C         4.23522574555971    5.05964959525745    5.61466938271284
C         5.30606062057715    4.82185228638973    6.46693695935770
C         5.33740796961464    3.70616402119656    7.27799618997175
C         4.27985999912324    2.81911089102546    7.26169826524220
C         3.17960353664360    3.02489566932965    6.43922070341389
C         4.24710297600180    6.29538499935344    4.74941435652925
C         4.11159930088221    7.55050955632146    5.61579478848818
C         5.51680652591356    6.35795547200395    3.89963643729957
C         2.03540894126004    2.03786762075153    6.50716197440532
C         1.51533214943221    1.88927414985193    7.94059813590957
C         2.45941445847590    0.65959350097948    5.99279225231327
C         4.50624603432595    2.06165045218744    3.17496598663496
C         3.63985219639447    1.38581160050567    2.29612077190119
C         4.10553218039512    0.78123014844598    0.98583192266150
C         3.94800853526044    1.76345250131505   -0.18871665974730
C         4.07823481053491    3.20822054217284    0.23039117577610
C         5.09763129002609    3.71669767464031    1.01392116605992
C         6.25826408543017    2.89335490782523    1.52058530780961
C         5.97685809762936    2.29707328027431    2.91189707006307
H         4.29316874361422    2.00094712777303    4.23998131098912
H         2.81236693589211    0.84996667212585    2.74595140289155
H         3.55249534972801    3.90072905011145   -0.42491216533241
H         5.29414877783216    4.78217257119771    0.94235712013683
H        -0.38280760114084    5.94751133533763    3.57147566565415
H         1.40146369017209    6.33927518191322    5.11882988613016
H        -2.83062079463613    4.06731120672774    3.51072677997807
H        -4.41926635486516    3.42370554891774    5.27067564708632
H        -3.84406299572868    3.54468338716992    7.64421926684276
H         1.78444605656579    5.60184060336250    8.00499239217738
H         0.24625064593182    5.07521262723913    9.85085925023349
H        -2.00661836730560    4.21426315472347    9.45361784881754
H        -2.22699492897175    4.31651122172641   -0.43062316484821
H        -2.91677258727927    1.97591773933890   -0.18268020824091
H        -1.88200756392792    0.58094536305716    1.54473853278860
H         0.35786080942055    5.99435890631784    1.62493698955070
H        -1.33363621749419    7.68826934704317    1.12366076146880
H        -2.08407245336546    6.49425320836247    2.18798693948482
H        -2.43291167689886    6.47993539008400    0.46259950622161
H         0.43447624216775    6.92239924395505   -0.58705989057742
H        -0.67750591965446    5.70315503332811   -1.21662395543660
H         0.91963296497479    5.23168282023838   -0.62314882906020
H         0.85104195512607    1.67967857393598    3.76923722175009
H        -0.64411945889756    0.23136613928052    5.19554245746149
H        -1.23242607555320    1.88782691443056    5.05591097238795
H        -1.98816155915623    0.60573860908186    4.11509427115658
H         1.00430627742580   -0.67893810739986    3.43463019145420
H         0.88417108978885    0.01466319693406    1.81072212421782
H        -0.51379691869238   -0.75745556699986    2.55773897838998
H         6.12857220672752    5.51962072549527    6.49431822713359
H         6.18135753061464    3.53072019615644    7.92903066677598
H         4.30670208821239    1.95506466847304    7.90754240676579
H         3.40918594814608    6.25594048302661    4.05207680022803
H         4.05331807416676    8.43299945326392    4.98302647173522
H         4.96807377331315    7.65853910883446    6.27835188434215
H         3.21300448296514    7.50593042290906    6.22961672771238
H         5.43513091007680    7.17433630367627    3.18651282838527
H         6.40569916975301    6.51559739138090    4.50628926706193
H         5.62812325379732    5.43046867537421    3.34487858898682
H         1.21346217354451    2.40518987080354    5.88850548539274
H         0.57754818909148    1.33763881426370    7.93557750577336
H         2.22497057305959    1.34518304539099    8.55866937365207
H         1.33791772749796    2.85960837484799    8.39367715498497
H         1.64076559873386   -0.04632220931333    6.11396807480070
H         3.31427752945000    0.28773792615399    6.55285164350493
H         2.73048650591657    0.69821631628726    4.94313818657279
H         5.14539612599895    0.46532619600535    1.08316047199221
H         3.51810247642914   -0.11511898741522    0.77526296019075
H         4.68546559448239    1.54459989394955   -0.96901994289445
H         2.95888175793492    1.62939006552682   -0.63245129112822
H         7.14637201432893    3.52612286356045    1.57896586879926
H         6.47552024397874    2.10049398301418    0.80283252432155
H         6.34361570313352    2.98277111489537    3.67936944725950
H         6.52269994160867    1.35512119207528    3.03663269626248

