83
CSD_code = IHUFAT | q = 0 | S = 0 | Stoichiometry = C26H50N4NiS2 | MND = 4
Ni        0.67272827360795    0.84761053067052   11.49761977238260
S         1.29546632519784   -0.64799896148597    9.81287905064081
N        -0.10488511211986   -1.01782892715110   13.65645532608384
N        -1.40586775406417   -1.18992462096297   11.95364544580841
C        -0.32257687803480   -0.52423506176186   12.41484356960822
C        -1.03300515013548   -1.97603059119585   13.95771183495039
H        -1.04495798161879   -2.50069771323248   14.89026058037689
C        -1.84792293632600   -2.08729771835553   12.88559956566066
H        -2.69224273893877   -2.72463768053332   12.72461248265098
C        -2.01756730748483   -1.01158685023303   10.65157614185595
H        -1.50373780836045   -0.15427127285443   10.19586328089209
C        -1.77779307032432   -2.24062169282481    9.77920381911325
H        -0.71186020851784   -2.34666402114910    9.59556129554373
H        -2.28051348398207   -2.11643753032177    8.82423870265245
H        -2.15465589914550   -3.14085982690238   10.25997750725367
C        -3.50821260272875   -0.71310008120044   10.79326098955584
H        -3.67816178289094    0.06799375442892   11.53005959082525
H        -4.05587181061519   -1.60212655369653   11.09865318796881
H        -3.90649704627295   -0.37876669228866    9.83925032771651
C         0.91789392253965   -0.57070833889108   14.58123145044066
H         1.48290884663171    0.20843169017022   14.05346445750553
C         0.27223766024910    0.06161792757196   15.81106806779693
H        -0.34357591096622    0.90149819203253   15.50086917621079
H         1.04426497088099    0.43126392323428   16.47958365603668
H        -0.34003072109645   -0.65870786673839   16.34902123560622
C         1.84582823613014   -1.72217200451598   14.96146441953914
H         2.25940908492677   -2.19358586688245   14.07385097759814
H         1.31322591982246   -2.47503608141342   15.53873254641734
H         2.66589924396292   -1.34454129460225   15.56613464820332
C         2.54545724155463   -1.79021512515996   10.51454005474876
C         3.37710773094582   -1.01293595686255   11.52719365646688
H         4.02305410967317   -1.67484367186741   12.10543424687517
H         2.70811655172727   -0.47155497468925   12.20683140736258
H         3.99775691244932   -0.28625575572379   11.00731882743776
C         3.42221953719437   -2.26969138083918    9.35998394913087
H         4.20169266340517   -2.93596847987734    9.72906281045636
H         3.89006191481174   -1.42244763150753    8.86241570463620
H         2.82143265503498   -2.80340766592844    8.62657729610816
C         1.85333288537382   -2.98275091369017   11.16867895123481
H         2.59070571551923   -3.65607117254512   11.60780128610007
H         1.27948261168493   -3.53695278268443   10.42828950692099
H         1.17259317827564   -2.65017072959996   11.94847890818183
S         0.05014344557099    2.34289805848736   13.18268907936941
N         1.45054833235170    2.71283266540276    9.33887049608913
N         2.75153657685860    2.88487864504652   11.04169949177473
C         1.66822972331657    2.21921808318061   10.58047458100752
C         2.37867878921108    3.67102761040235    9.03765036456171
H         2.39063195863161    4.19572169383154    8.10511811048794
C         3.19359974967450    3.78226622290258   10.10976516035200
H         4.03791419399076    4.41960860055689   10.27077077270045
C         3.36318992943935    2.70650548079393   12.34379210835584
H         2.84933822526932    1.84917694337355   12.79946749683784
C         3.12343435802549    3.93552001797379   13.21620192348374
H         2.05749898893096    4.04155656311116   13.39981317061410
H         3.62611026297963    3.81129668444780   14.17118575241204
H         3.50030759617280    4.83577674944875   12.73547734509852
C         4.85383476746138    2.40801521626036   12.20214669961401
H         5.02378504134437    1.62690629752617   11.46536382689207
H         5.40150700380862    3.29702829212998   11.89674253206868
H         5.25209862433803    2.07369539590371   13.15616987522457
C         0.42777041788948    2.26571885690636    8.41408404345256
H        -0.13724508376475    1.48657602696058    8.94183845178213
C         1.07342580757196    1.63338402217578    7.18425136328922
H         1.68924361764243    0.79351291685572    7.49447026285785
H         0.30141049276423    1.26372663862069    6.51572558425631
H         1.68570053584693    2.35371541563908    6.64631621512229
C        -0.50020221113094    3.41715473968577    8.03387061208296
H        -0.91382214781954    3.88852188662103    8.92149208563411
H         0.03239703242173    4.17005146750672    7.45664306556219
H        -1.32024267956346    3.03950654306790    7.42916781713180
C        -1.19972190986192    3.48518252356479   12.48086813375182
C        -2.03135684481174    2.70787787114351   11.46824259718249
H        -2.67736279684490    3.36975523027856   10.89002882441030
H        -1.36233249075652    2.16655159792598   10.78860405631611
H        -2.65192749504655    1.98114338374306   11.98812622639022
C        -2.07652368353249    3.96465451730254   13.63538379199237
H        -2.85603249581330    4.63088368139189   13.26628650196108
H        -2.54429863812181    3.11740436582213   14.13299987337111
H        -1.47573905567765    4.49843317960246   14.36874914081910
C        -0.50769473589482    4.67775130452503   11.82667401806016
H        -1.24507434441753    5.35106209070901   11.38754325877731
H         0.06613374233452    5.23198042025908   12.56705708017517
H         0.17306741123400    4.34520957097231   11.04687849612334

