113
CSD_code = IHUFIB | q = 1 | S = 0 | Stoichiometry = C50H59IrN3(1+) | MND = 6
Ir        6.27075322063846    6.43104282630178    3.97846243184214
C         6.40533130866903    4.34890318963141    3.54694212867048
N         6.17013286693388    3.44073323005678    4.50771965175841
C         5.65804347042966    2.15851717030865    3.99905074019465
C         5.89551363399076    2.32074846255112    2.48812832340906
N         6.22725640747333    3.74308851048321    2.35513961024924
C         6.43690633237693    0.93355100846909    4.39577122617309
C         6.46041921454760    0.18084845628791    5.53395812916020
C         7.28310020809719   -0.96627139125534    5.55818603405933
C         8.06677531921421   -1.33635261428423    4.49492048885946
C         6.99526865595990    1.33627166037915    2.15359129354551
C         7.66949523162924    1.04962897373318    1.00092439132790
C         8.56972564591317   -0.03750833870420    1.00630779379600
C         8.75833082833403   -0.83750096751154    2.10449745125616
C         8.05569244951426   -0.58001807574082    3.30202313036822
C         7.20987055627388    0.53692233498840    3.29007757163002
C         6.42428250148358    3.52820190954102    5.90500809443051
C         5.35732234596429    3.76575732037679    6.78087029092322
C         5.60251277274913    3.75093801428725    8.14855616854012
C         6.87703276898969    3.54262235502704    8.63730772131106
C         7.91846303148568    3.30456593667531    7.76303710483316
C         7.71174602170183    3.25467725999655    6.38964217164927
C         3.95246348006307    4.01957235685086    6.28369601640314
C         3.04620413760170    2.84099527921889    6.65424891432575
C         3.38192153512977    5.32029645223186    6.85436848617588
C         8.86853911481646    2.85743801176598    5.49921141482781
C         9.56083141594697    1.59595805402824    6.02785204664757
C         9.91066991535908    3.97140681078024    5.38709350830286
C         6.57809630837740    4.15655212018492    1.03766166046134
C         5.60488593948021    4.12857764276965    0.02253644121421
C         5.99997013108032    4.37363432849412   -1.28552018795682
C         7.31562916441249    4.65175454517148   -1.59816495470046
C         8.25573947565126    4.70688798204602   -0.59082040374021
C         7.91194444271870    4.45757415556528    0.73221832899162
C         4.13531805040108    3.86943192664396    0.27853120828194
C         3.69164632991340    2.56626592366730   -0.39685423234577
C         3.27047788235473    5.02974917047081   -0.22542832370064
C         8.99017432106325    4.55170801767077    1.78192976708659
C        10.14425160018012    3.58822543505466    1.50147545234403
C         9.48676267748735    5.99791226659745    1.85404698883163
C         4.37314691966138    6.38165424621972    2.99330200286694
C         5.32290576632496    6.89768373745458    2.10198888919628
C         5.36324329196396    8.35954036187345    1.71083176627079
C         6.33312274581880    9.16377266810591    2.58896984091184
C         6.44650990653590    8.61782753038606    3.98737563291935
C         5.38333829935871    8.26787336105893    4.79648842943212
C         3.93506945312232    8.45547519907771    4.40904709732305
C         3.33643565371497    7.23493628882889    3.68526529171935
N         7.66937237775657    6.51580474028067    5.52033274981680
C         7.26655280364671    6.42971248795117    6.79283547593308
C         8.03907353378630    6.82788212515870    7.86719721998696
C         9.29959096591934    7.35559815690164    7.63718335356251
C         9.72167824822372    7.46587168819443    6.32132633410866
C         8.88584677737981    7.03870532669453    5.30731441447689
H         4.02774431839947    5.36218938948424    2.83217324596104
H         5.71447759002597    6.23760559145684    1.33616960019110
H         7.37888273452229    8.89464934347344    4.47496402257149
H         5.56199742878539    8.25399050201990    5.86935635173811
H         4.60202519821288    2.06567306104587    4.27609649261329
H         5.01278333781472    2.08232259018100    1.89373713884366
H         5.87507715926596    0.44051637653084    6.40345193733180
H         7.29044484496054   -1.56771355775957    6.45506712248579
H         8.68577681494540   -2.21845327927247    4.55704300422016
H         7.52672818571883    1.62237020901268    0.09702666010073
H         9.10941149460294   -0.25268209661682    0.09617396668536
H         9.43283008834728   -1.67883073063232    2.05531675168928
H         4.78928816270156    3.90394562077352    8.84028088222246
H         7.05491290565584    3.54552254199865    9.70178438956405
H         8.90555327510673    3.12233333336922    8.15620428065996
H         3.97472568598760    4.12318394559929    5.19459628148399
H         2.05640767403131    2.97773581138263    6.22510835905257
H         2.94137287672871    2.76425214785622    7.73329374087309
H         3.45408815563283    1.90071919762233    6.28860015704480
H         2.36824570287409    5.46787519165763    6.48870646157821
H         3.34052593697281    5.29452823551118    7.93962836894672
H         3.98732276745928    6.17021268390772    6.54922352791594
H         8.49096164616954    2.64118801289258    4.49654896178264
H        10.16898385377671    1.15598522411977    5.24115711975103
H        10.21345202542693    1.83209696962074    6.86401214559208
H         8.83694501740023    0.85600197104376    6.35387449384044
H        10.79350706450587    3.59272956858075    4.87785684206817
H        10.20802873482669    4.32244172898553    6.37299346709673
H         9.52123146143953    4.81089228572721    4.82210180367309
H         5.26674259848660    4.34367542409136   -2.07494397762112
H         7.60391444821135    4.83084944122016   -2.62221338504156
H         9.28038174002750    4.93431990772399   -0.83808479407492
H         3.96359064132265    3.78912121132284    1.35561182177346
H         2.67070719470282    2.32481144529833   -0.11038695702723
H         3.72337802562882    2.66849175939317   -1.47795538749001
H         4.33522680981959    1.73159882390265   -0.12408945243670
H         2.23155010536296    4.85075642921858    0.04104202624287
H         3.58419609139693    5.97014766106564    0.21944935888678
H         3.32772141408904    5.12392667967414   -1.30552851630292
H         8.56637414074566    4.29605253217498    2.75686654619820
H        10.88550132652182    3.65932488355706    2.29375303618397
H        10.63374516878881    3.81933825095700    0.55967290685803
H         9.78388142868276    2.56279129581566    1.45891015563963
H        10.28203841841423    6.08489753660088    2.59108619989315
H         9.88128666024753    6.32214884463159    0.89495054171885
H         8.65869195465992    6.65402500441294    2.12325896234021
H         5.68214865850823    8.43852955501671    0.67073971525604
H         4.35808518163018    8.77627066395894    1.77285914328931
H         6.01984052945381   10.21121994928778    2.63789075540992
H         7.32554710250092    9.14901045478531    2.13433629747371
H         3.85600228890109    9.34392727246097    3.78156962856878
H         3.35293226199935    8.64884249609240    5.31102537298012
H         2.59841402623368    7.56341220010526    2.94687059035844
H         2.80700002272692    6.61187027606172    4.40529813030342
H         6.28511765801547    6.01675696333628    6.96407058435708
H         7.65054652445482    6.72444459676004    8.86716750805780
H         9.92901894461272    7.67470704814974    8.45246057644231
H        10.68888899750177    7.87560413151512    6.07839006611463
H         9.20371003642255    7.12099976284537    4.27871239010666

