103
CSD_code = IHUGAU | q = 0 | S = 0 | Stoichiometry = C45H54ClN2Rh | MND = 6
Rh        1.74799560083611    3.06745879075079   -4.04216589056552
Cl        1.50088700372643    3.54172756244984   -1.82731766253843
C         3.42871969340410    2.15495634011225   -3.35220683368725
N         3.36188571016312    1.13146211403130   -2.48221319073618
C         4.44109937631490    1.16786063688995   -1.49233827346554
C         5.25030172981343    2.41992466864771   -1.90252359274401
N         4.56587511797444    2.83416902657479   -3.12980916745765
C         5.42383348345443    0.02504083648881   -1.54182204445399
C         5.30418972157369   -1.31208566469777   -1.28513157376005
C         6.46275139787702   -2.11338762731060   -1.35700565717002
C         7.70152108184178   -1.59970284139494   -1.64680967895874
C         6.66894942428187    1.94284593991974   -2.05964059461061
C         7.84472751063892    2.60070650612558   -2.28107696471655
C         9.03771751730337    1.84663542748696   -2.31657236931821
C         9.05803358697771    0.48622140887267   -2.14387141463183
C         7.85957556149948   -0.21893202746621   -1.89640002254425
C         6.69005591604098    0.55202306227190   -1.85258171611346
C         2.50733703912269   -0.00694144681448   -2.50537409065998
C         1.67619528396729   -0.28670270151489   -1.40930859100855
C         0.98836010023351   -1.49384358662940   -1.37824360309276
C         1.10471279498590   -2.41510292027326   -2.39674081958933
C         1.90136465630696   -2.12116206842028   -3.48402981880298
C         2.60552909278633   -0.92733007826355   -3.56403650690150
C         1.47353078817797    0.66072437501378   -0.24999171460346
C         2.02346821201247    0.06199834013990    1.04815029464684
C        -0.00969084436992    1.00521816657318   -0.09338303126809
C         3.46572460192357   -0.69670243434760   -4.78587917100912
C         4.76609286596946   -1.50115151836523   -4.70011211874524
C         2.72077796175203   -1.07329513255404   -6.07186768288958
C         5.14562921336335    3.83350622546144   -3.96124974911062
C         4.99416106393703    5.18497290220234   -3.63359542493223
C         5.60354488466460    6.14066132816103   -4.43702148989516
C         6.34689632591483    5.77419860721656   -5.53991684044309
C         6.49833919655309    4.43727264830536   -5.84934485247150
C         5.91745727610181    3.44644412934229   -5.06829957066108
C         4.16641555264835    5.63663515372405   -2.45643813439840
C         5.00880280476805    6.43085402058754   -1.45700340854742
C         2.97214798673119    6.45019913230506   -2.95649970290831
C         6.14468440074138    2.00104639383888   -5.45098962980362
C         7.63682171020379    1.67724882187461   -5.57113037892576
C         5.46104806647643    1.67545831936316   -6.78179071214189
C         2.28249949842406    3.62037188294357   -6.00765893145753
C         1.66309363698403    2.37158654041596   -6.05610326717707
C         0.25251122915862    2.16654957199349   -6.56592530947340
C        -0.77448295509568    2.20937303897340   -5.42129427971627
C        -0.37210332592236    3.14117113299762   -4.30252587937305
C         0.10533681170019    4.43034590252793   -4.46300559860039
C         0.23326995802882    5.12341274171460   -5.80129680314395
C         1.62362045956760    4.91377257886970   -6.43077931729236
H         3.36852964350910    3.66003523635129   -6.08944828682779
H         2.30088112623497    1.50364126707445   -6.17378742796695
H        -0.82251503622863    2.88608427553793   -3.34138088079187
H         0.00362020536444    5.10233608667102   -3.61226598038850
H         4.02081120695045    1.25602561773911   -0.48741857407495
H         5.19285816676782    3.23256604735143   -1.16831891518271
H         4.35330703539559   -1.76111319213348   -1.04087730807634
H         6.36180359114997   -3.17128438508636   -1.16268535796196
H         8.56675590474812   -2.24596686890358   -1.67304523973788
H         7.87792728532387    3.66967831886711   -2.43233641229024
H         9.96682559289785    2.37140178024874   -2.48826658548977
H         9.99330659769119   -0.05314646378074   -2.17930272103580
H         0.35599775948812   -1.71935816609007   -0.53371403030471
H         0.57535131108285   -3.35541903614939   -2.34705277310411
H         1.98930424254883   -2.84307818258150   -4.28044059727211
H         1.97649904929048    1.60514715883896   -0.45839026600327
H         1.95258321898637    0.79176544189109    1.85164785509447
H         3.06680772548878   -0.23194433093941    0.93957164462433
H         1.45602428820363   -0.81955854520431    1.33888845418153
H        -0.12627532280071    1.76158126045710    0.67867050547470
H        -0.38876599016981    1.41435178475480   -1.02582370180433
H        -0.60571505339502    0.13730247125890    0.17797228491925
H         3.71566729692730    0.36601631294131   -4.83476718235323
H         5.32247743841870   -1.40905563445645   -5.63051061711274
H         4.55178393620761   -2.55440286574354   -4.53084625612636
H         5.39556186375841   -1.14874033469645   -3.88834228760700
H         3.22504973528774   -0.64500711565827   -6.93609914555412
H         2.69642435834630   -2.15181571483520   -6.20837808253564
H         1.69672010506391   -0.70935453613442   -6.04545850350894
H         5.49198561257384    7.18683636691654   -4.19674084118237
H         6.81123994544823    6.52873818334396   -6.15798903870576
H         7.08525756277431    4.15874415788698   -6.71096114976966
H         3.75165087013739    4.76647591915452   -1.94459315217046
H         4.40932233869413    6.67468556925400   -0.58310766306124
H         5.36918128530085    7.35959051954251   -1.89360327722159
H         5.87105495469620    5.84992679352556   -1.13232210621940
H         2.33926675236997    6.72858189174687   -2.11770331058926
H         3.28523191090871    7.35185637689320   -3.47832069860049
H         2.38756772246688    5.82839093815353   -3.63706478854343
H         5.72437068398097    1.35862495864088   -4.67344882034467
H         7.77301783437671    0.60069039100251   -5.65098682202363
H         8.06674474895129    2.13909849428711   -6.45631933860872
H         8.18341087059634    2.02663636942311   -4.70079456688392
H         5.65730463231601    0.64094770194053   -7.05491775847090
H         5.84322137784686    2.31506312731499   -7.57416772888357
H         4.38754959517530    1.82039318786362   -6.71806626270751
H         0.02338433431034    2.92455391492755   -7.31634786716245
H         0.18667452301985    1.19527991635252   -7.06231379689597
H        -1.75826207718793    2.50758225002617   -5.80149524260601
H        -0.87966104580248    1.20453954447311   -5.00185033238401
H         0.06493676022913    6.19372467756858   -5.66468483556063
H        -0.54895482300730    4.75786711733226   -6.46894753314770
H         1.54969220441557    4.93571713892972   -7.52436603544757
H         2.27978836133585    5.73755257879564   -6.13880786212535

