51
CSD_code = IHUPOS | q = 0 | S = 0 | Stoichiometry = C25H19AgNO3PS | MND = 2
C        -1.83417816302061    3.09235621856788    9.93226661461485
C        -2.29380937254850    3.98894094547497   10.89427919129164
H        -1.58824011037940    4.66275000647361   11.37141881128751
C        -3.63906141384105    4.02702741600203   11.21236069741051
H        -3.99465957878711    4.72287104274968   11.95674289660703
C        -4.52879541045227    3.18116674397019   10.56833897171622
H        -5.57987659294429    3.21420833241443   10.81389471212641
C        -4.07497096621141    2.30095438077135    9.59918688988542
H        -4.77165700487782    1.65132045943757    9.08981621035239
C        -2.72984824740362    2.25285770255646    9.27704480861791
H        -2.37777746350596    1.57605854608360    8.51092821159071
C         0.55720908977097    1.69162120759586   10.63198342196580
C        -0.23340427087680    0.61062864212010   11.00837003595049
H        -1.27698780220644    0.58046736451298   10.72846396310836
C         0.31886542318448   -0.41634412064128   11.75437816196313
H        -0.29453076970535   -1.25569334865663   12.04735340884078
C         1.65233557390217   -0.36948276779447   12.12756081622179
H         2.07677948659106   -1.17375635697260   12.70972749486558
C         2.43935229345325    0.71276838223910   11.76459509224088
H         3.47540089110537    0.75309749211058   12.06552104239847
C         1.89346327327171    1.74393077977964   11.02290842875791
H         2.49093774443819    2.60757245694117   10.73843741969413
C         0.08506065446008    2.45573077582572    7.91773963625870
C         0.09350983395836    1.10574056064025    7.58463678257544
H         0.05550090087190    0.35629335648666    8.36263632583962
C         0.16566334467397    0.72772913662813    6.25470704499807
H         0.17448978600553   -0.32076170294953    5.99557885550867
C         0.22989487892672    1.68782169039056    5.25831340424688
H         0.28748531153077    1.38620788731916    4.22322383928829
C         0.23231410468211    3.03489377445094    5.58794732236734
H         0.29372366946262    3.78159165293190    4.81078208787939
C         0.16504229165233    3.41810658679226    6.91394846210783
H         0.17975016668516    4.46897553992024    7.20016846231456
C         3.23276063328824    7.79579850561831   12.09037583354463
C         4.31716045428268    8.22910131082932   12.81497695761513
H         5.30157487012351    8.25324686339815   12.37398606174948
C         4.09527658458800    8.63747230163822   14.12604285008248
H         4.92432763984532    8.99318878097775   14.71969996917071
C         2.82394022996522    8.58953028008900   14.68013430332153
H         2.67789371255464    8.91028242941819   15.70124539791745
C         1.73973087122184    8.13480664819003   13.94297804337748
H         0.74638945135700    8.08761153695272   14.36197114447615
C         1.95930326924646    7.74844381645552   12.63206168168004
C         0.96744383914932    7.21202964577379   11.65138209971023
Ag        1.08650559902074    5.14864842221465   10.04461878787271
N         1.41911190123504    7.25061137010294   10.39284365491679
O         3.36476831617412    5.73747827705064   10.45070287874923
O         3.69470915392104    7.92631167577205    9.41567208459803
O        -0.11931818753268    6.73645279513448   11.97802169243445
P        -0.04108386741053    3.08497085506573    9.62185347208992
S         3.03452397710550    7.16176370114607   10.42677356179870

