89
CSD_code = IHUVIQ | q = 1 | S = 0 | Stoichiometry = C32H54P2Rh(1+) | MND = 8
Rh        9.58635242485788    8.26302814608553    5.23257320296279
P         7.35491317043247    7.76869480767049    5.08425149837697
P        10.68064350065287    7.07304167005100    3.52891603061587
C         8.86597732268860    9.86895063870704    6.61343819499257
C         9.49570710904794    8.87829290958501    7.40356211004884
H         8.89628320719256    8.24487866893513    8.04745913881494
C        10.88547924736417    8.91449186395329    7.59999125972348
H        11.34490424732733    8.22908810838962    8.29848595414375
C        11.65515609433939    9.85461727684113    6.94454414224796
H        12.72283303712645    9.88909117521798    7.10467014842616
C        11.04764446624333   10.80846730329829    6.11621529581332
H        11.65395017690225   11.55817447406630    5.62989327910006
C         9.67500433700594   10.83180494206318    5.97419372994116
H         9.20461292024424   11.63583427884590    5.42257946145888
C         7.37693379516310   10.07199709300953    6.70511670970516
H         7.07647439810195   10.85043636273895    6.00528711962264
H         7.14593799741509   10.43921990509629    7.71066185026902
C         6.60691555785986    8.77631261849501    6.45714253633427
H         5.55769299806223    8.98800269574784    6.24630072065737
H         6.64738601987493    8.16240253648114    7.35771974402884
C        11.81042265922689    5.79350525243952    4.37649624023580
C        11.70224038215155    8.43961625714234    2.67416539731274
C        10.94057774066965    4.56330635627932    4.65252190501941
H        10.61170405047844    4.07354621330598    3.74229650237845
H        10.06523681692040    4.84248570743700    5.23417099149567
H        11.51053850466722    3.83748947948303    5.23017866067009
C        13.06240145450488    5.38650030256615    3.60541685245337
H        13.59059823814784    4.62487792749980    4.17848573649380
H        13.74360450259814    6.22213558156934    3.47278662642437
H        12.83088208978851    4.96509466345050    2.63383403254452
C        12.22084334319588    6.36205731758811    5.73794004643400
H        11.33551279360484    6.72733184087651    6.27064270141421
H        12.94171262619762    7.16916433858869    5.64670103812195
H        12.67511841466531    5.57901772186727    6.34312728894959
C        12.38313294676640    8.03782026714070    1.36943545232261
H        12.96539332554895    8.88477860842185    1.00723636575054
H        11.65799476224954    7.78923135685865    0.59998191626662
H        13.06557306194951    7.20443060835287    1.50488255504282
C        12.74654616624795    8.98952398131911    3.64337912465599
H        13.58735540466642    8.31093514252615    3.75789303254519
H        12.30082202015221    9.17161764206463    4.62046228947005
H        13.13780976239775    9.93476644501219    3.26903405975538
C        10.68939925869373    9.55356248886029    2.37889942185899
H        10.15337128423757    9.83854458696030    3.29273186399449
H         9.96129785042306    9.24439322765679    1.63148403209874
H        11.20249365871060   10.43343373678691    1.99501721686042
C         9.92668291744370    6.19338924708758    2.07131506473676
H         9.01977122970446    5.71902693537740    2.44856792924156
H         9.60132983782623    6.99320794729700    1.40164769550929
C        10.66266722507152    5.15551577185618    1.20969586609462
H        11.58307728051523    5.55851580628659    0.79447026794196
H        10.90054968514919    4.26163055285048    1.78441225743101
C         9.73276548614516    4.77395447457599    0.08667221752686
C         9.84357782489887    5.36898089084371   -1.16239607961524
H        10.63005400170492    6.08749156092787   -1.34688863587119
C         8.96590958839066    5.03766323564044   -2.17989979054695
H         9.06848520744511    5.50122528677804   -3.14935099165307
C         7.96229863074537    4.11112512221155   -1.95635216500697
H         7.27983630253199    3.84966544139590   -2.75026319962113
C         7.84136632056332    3.51559006252857   -0.71208360444758
H         7.06423203689880    2.78765432017108   -0.53361153862418
C         8.72014867430724    3.84752581825084    0.30291298661523
H         8.62633764996999    3.37296082366333    1.27028006190869
C         6.37201785493169    8.36918293864587    3.57117869693000
C         6.84968773427734    6.02087055499297    5.63787849370718
C         4.89035479057642    8.01218095748749    3.60308500559556
H         4.37946476864974    8.57644400119216    2.82419859592769
H         4.42190430134127    8.26254106739619    4.55138179099467
H         4.73373016714025    6.95721882019475    3.39675914283953
C         7.00963171773358    7.81563700914150    2.30344727052250
H         6.51557215356492    8.23241966011453    1.42783664221227
H         6.93504177890282    6.73491637511544    2.24294054088603
H         8.05642598041222    8.10413498401838    2.28470769275253
C         6.54111022574119    9.89049203894388    3.54349704653859
H         7.58323515575471   10.15744154588949    3.72839729341857
H         5.90034998874878   10.37867780214368    4.27196910505963
H         6.26794071381676   10.27102541834340    2.56114947563692
C         7.09801653585196    5.03501880204215    4.50032101565518
H         8.11663216410705    5.13517667613159    4.13614878483435
H         6.40579711529745    5.19580280212120    3.67822511159533
H         6.95788953853881    4.01546370292636    4.85543112921516
C         5.40507338876170    5.88060685569194    6.11605062185013
H         5.29086506783792    4.89489147246512    6.56529256479970
H         4.69655169091325    5.94944208655778    5.29850478774562
H         5.13916090168605    6.61513120484802    6.87028143303841
C         7.79074047268676    5.68812867460283    6.80275707636447
H         7.81493378595941    4.61316512581614    6.96859694911489
H         7.45867931963147    6.15183896299502    7.72854327682528
H         8.80831764107301    6.02773263506846    6.58528863645630

