76
CSD_code = IHUWEN | q = 0 | S = 0 | Stoichiometry = C24H42F3NO3PRhS | MND = 5
Rh        1.67326361132770    3.27762342619715    5.63342155633024
P         1.81843073104641    2.33989199228191    3.57109213218557
C         2.63462382479862    2.92662441888084    1.96333921430339
C         3.85751655383234    3.73819218552247    2.39158786149449
H         4.39526374784694    4.08912202676453    1.51215958023701
H         4.54296255602142    3.14039421738125    2.98965204501962
H         3.54440421501008    4.60419471163329    2.96878129855370
C         3.08594780883636    1.76567039436422    1.07251886562435
H         2.27847054067489    1.07126135189587    0.86303008957150
H         3.91253029863349    1.21409604855313    1.51290017447085
H         3.43218361340831    2.17095313573830    0.12255835789573
C         1.70468851934452    3.84751538163972    1.17767077755045
H         2.27686715571385    4.35894487171858    0.40437851692947
H         1.26246651869781    4.60830222882782    1.81859693029909
H         0.91428662580774    3.28973224639751    0.68220023414110
C         0.04361822417683    1.75150655261996    3.23980146798072
C        -0.38489801458670    1.05118191950042    4.53435476957790
H        -1.43028944829879    0.74943312728158    4.46952566854446
H        -0.27983973867757    1.74390199282252    5.37713736124865
H         0.21419430862181    0.16515992118003    4.73686543970791
C        -0.85800197264239    2.97520680967876    3.05022232625694
H        -0.79235018237459    3.38129143882714    2.04682773696294
H        -0.58687761245991    3.77616476635306    3.73812524670808
H        -1.89778028655228    2.70296483710378    3.23196495328189
C        -0.12978115499300    0.78711653264189    2.06900012805041
H         0.49753931636207   -0.09584648542185    2.17521493794875
H         0.09015850715001    1.26619572052672    1.11943948838668
H        -1.16681737425403    0.45330450857878    2.03576594980776
C         3.62990255944268    3.86940725564745    5.77064964551389
H         3.94806314312298    3.90226273597323    6.81136065364076
H         3.65412089667998    4.87461021376421    5.34985830380890
H         4.31376165608387    3.22358639105634    5.22592620682815
N         1.25906658180450    3.54076694839496    7.77869451686512
C        -0.12409938259841    3.06603796386168    7.98841207057285
H        -0.34880859920024    3.06861847285668    9.06503031611306
H        -0.15581237072377    2.01979869447162    7.65966725603032
C        -1.19271198328227    3.86731343194849    7.25370928977886
H        -1.37447871955117    4.82626536386498    7.73183659467918
H        -2.12573045288361    3.30719388885198    7.24996526991484
H        -0.90024374983706    4.06550735181222    6.22323002945261
C         1.43664627679066    4.93528386096289    8.21585587672127
H         0.81824442523593    5.56560034529997    7.57391352301992
H         2.47730880428516    5.20823961231209    8.02575938649888
C         1.11434374262065    5.22507113530969    9.68184603863077
H         0.05825140372542    5.09225638624444    9.90151901492163
H         1.36633950715376    6.26179204842414    9.88853676571716
H         1.69574611754290    4.59628561060322   10.35299736505410
C         2.34687703221915    1.55063363026993    6.27699894713301
C         2.14533477702693    2.60680441220748    8.50587576612434
H         1.69853660756641    2.32838540249683    9.46855868149190
H         3.09483569265360    3.10804686000334    8.71787864077286
C         2.42102451085860    1.38748781534010    7.66077923834105
C         2.79327058050173    0.16035097734878    8.20550237877311
C         2.88971284489714   -0.03759236515681    9.68989779667679
H         3.23203625501263   -1.04342818709150    9.91835950134480
H         1.91945741988457    0.10809832514066   10.16516991817032
H         3.58975158107660    0.67263086192235   10.12789451926267
C         3.09200609255702   -0.88290004542528    7.34026425696673
H         3.37882021083562   -1.83909892126234    7.75457326837370
C         3.06497793627050   -0.73057384733646    5.96124677776809
C         3.44621085697626   -1.87370657915745    5.06720699447920
H         4.27482389757838   -1.59316713140945    4.41820642300071
H         2.60913087442605   -2.16732375215355    4.43342723021737
H         3.74605884330347   -2.73660742807383    5.65588067472681
C         2.69282171883696    0.50298234525938    5.42673176753438
C         2.73026294223162    0.76648504302526    3.94595099232712
H         2.34047141446078   -0.07052188466212    3.36412023377356
H         3.77506629701825    0.91038219754123    3.65592258245458
S         0.34237127860216    6.36991700968060    4.35953185913238
O         0.76300294745749    5.22580035767003    5.16777491443486
O         0.35063361152813    6.12156870378973    2.94558877033728
O        -0.79395950098147    7.03992730424590    4.91524518251295
C         1.77853121324258    7.51298012157834    4.64466904578352
F         2.88972930059684    6.96974148467884    4.13259299462342
F         1.98356941480487    7.66995951050831    5.95697170475489
F         1.62134259967640    8.71563978787575    4.10177770587932

