79
CSD_code = IHUYUG | q = 0 | S = 0 | Stoichiometry = C25H47N3OSi2Zn | MND = 3
C         1.77837697663108    1.80805719751263    7.42661385330364
C         3.46563828533497    0.54091483344790    8.40654022684907
H         3.20858142634704   -0.40558009246223    8.89314477189432
H         4.38189258794878    0.92345274395807    8.86119255839787
C         3.55333460139450    0.41533004978876    6.88331115200355
H         4.48519890656037    0.82262519062366    6.47810122046354
H         3.44335574916831   -0.61557581666634    6.53673553392742
C         2.13874047394270    1.42549496354594    5.03547839311302
H         1.20617835643404    0.91725077387509    4.76679035915297
H         2.95672768601374    0.98373397320153    4.46306653016894
C         1.97892477036497    2.93250783902745    4.64818215559209
C         1.91467076952813    2.98538643886525    3.10763840936274
H         1.07834109135299    2.38688952962525    2.75742873299940
H         2.83552442001571    2.62245635979488    2.65744455917066
H         1.74583523135094    4.01365928914239    2.80357929264959
C         3.22271914632077    3.70928072823488    5.12380694956911
H         3.14076490371201    4.73856295377596    4.78760209317442
H         4.13725265772394    3.27574287106534    4.72348355993494
H         3.26549335962869    3.71603973136641    6.21167500341474
C         1.99730015996783    2.01210378778102    9.84337327636748
C         2.71541241325774    3.09602745874469   10.35808475434522
C         2.34443145624917    3.60051435046375   11.59718164537761
H         2.88068815456014    4.43761934866798   12.01665344857264
C         1.29143096525169    3.04731921888969   12.29978264418942
H         1.01139939030695    3.45631220322130   13.25913762003305
C         0.59845614437267    1.97184749540499   11.77962520561358
H        -0.21497221582781    1.54321640882835   12.34396693021816
C         0.93619840376341    1.43515624755220   10.54420752947125
C        -1.92697665000930    0.86220479576531    6.06578617586360
H        -1.03131648151985    1.07933393194806    5.48823111725147
H        -2.60627675491511    0.31080804071899    5.42420441098066
H        -1.64744776915427    0.21328415212531    6.88854951738431
C        -3.21692712578578    3.48760699897047    5.10948614734462
H        -3.78082007067387    4.37649596151369    5.37193543713408
H        -3.83017644668557    2.89279191808079    4.43889954554833
H        -2.33396995108703    3.80575817300501    4.56333105087336
C        -4.25242173772753    2.12458914075280    7.69933366227668
H        -4.02857938490986    1.50582890473005    8.56057087102567
H        -4.99191936776450    1.60489098786854    7.09977145982293
H        -4.70413031983266    3.04130648204060    8.05922931826352
C        -2.98052692885817    5.92655017884567    7.97800768184685
H        -2.65402566362109    6.29867951759882    7.01259828666361
H        -3.07315441557935    6.77528257964972    8.64883252174514
H        -3.96927554714792    5.49966003265892    7.84854363841569
C        -2.41386841107375    4.04848232138721   10.37006793581156
H        -3.28347622582594    3.41015079130774   10.26760800523602
H        -2.70034910558793    4.90282264319041   10.97520539315347
H        -1.65627871282768    3.49658884537287   10.91654350032377
C        -0.06993378158458    5.44075275432113    8.94996934787583
H         0.52829621682415    4.84830461297005    9.63464957077747
H        -0.15543263721278    6.43930821959307    9.36515348731321
H         0.46556575247892    5.51919099059822    8.00367502818494
C         3.88453056927020    3.70136299794284    9.61410840221197
H         3.97701691137106    3.21609721252787    8.63815920796467
C         3.67766701369707    5.19398201383391    9.35285168529649
H         2.77616948187381    5.35114216236371    8.76649347785980
H         4.52515842776212    5.59239715485159    8.79867118166290
H         3.58573975488375    5.74953297724681   10.28207372729789
C         5.18142494568135    3.46673332259303   10.39597942577832
H         5.16056271361834    4.00183209299235   11.34181017698983
H         6.03570042204873    3.81988064354339    9.82232375933509
H         5.32095924591336    2.40843179634584   10.61095363114250
C         0.18899782336804    0.23976786798887   10.00562526461826
H         0.54556559739497    0.02418924030095    8.99435497148675
C        -1.30956797873302    0.52406730794313    9.91008340884919
H        -1.74073861145278    0.69698434156628   10.89243114424826
H        -1.81874646549224   -0.32723348381325    9.46313109572768
H        -1.48280349829146    1.40105425032065    9.29068274163607
C         0.46188282476081   -0.98590155444984   10.88459644306860
H         1.53033849104931   -1.18440094189375   10.95449506024998
H        -0.02630091810528   -1.86306940574091   10.46581035108753
H         0.08060052966332   -0.83043283130126   11.89063767846449
N         2.41724872546439    1.22366485262337    6.43322571963055
N         2.36183349577955    1.49271505634921    8.57344367831900
N        -1.47974485038158    3.29715076332805    7.59945324578327
O         0.82311809051847    3.47482856892802    5.15332388544375
Si       -2.69607254053900    2.50804190751679    6.66721536577428
Si       -1.76798464513120    4.61808494813382    8.66151624482554
Zn        0.23156969241462    3.10507768567603    6.82043750480629

