55
CSD_code = IJAGEG | q = 1 | S = 0 | Stoichiometry = C26H22N3O3Pt(1+) | MND = 4
Pt        0.74492533698216    0.88997229439075    7.94971426354630
O        -2.10786403626634   -3.34688785509243    2.08064578709359
O        -1.35295339916336   -5.67502519274232    2.60609048379863
O         0.20570643403961   -6.27757505705822    4.94148004573217
N        -0.07110660004881    2.32517257618564    6.83355432432284
N         1.18399441095447    2.38022735640228    9.05923515314832
N         1.68773328291604   -0.10187824473944    9.39715201955814
C        -0.71701217629644    2.21052471743371    5.67207735113952
H        -0.80737852751902    1.20480847083363    5.28213194649830
C        -1.24176499128751    3.29799970873994    4.99915016620084
H        -1.75599972400385    3.15531961830377    4.06329785980940
C        -1.09436448072236    4.56630126908366    5.54852159186418
H        -1.49284408069780    5.43464592441806    5.04863297043413
C        -0.42531101351833    4.69543775015528    6.75154129793071
H        -0.29499819681293    5.66563404036091    7.20236294522291
C         0.08279231918933    3.56483647321653    7.38520534946465
C         0.80487980363840    3.60206132462193    8.65811019079484
C         1.12093343355551    4.70545117000368    9.44359751859943
H         0.83245975863143    5.70140138696580    9.15206961849242
C         1.82488347717241    4.49828509586418   10.62441620346126
H         2.08010438379413    5.34105887721741   11.24673101226675
C         2.20453675326755    3.21856457870940   11.01236474640610
H         2.75073695780679    3.06922680727253   11.92860487685384
C         1.86331096614857    2.14864366698181   10.19164556530264
C         2.14607903098423    0.72525925069068   10.38280844583724
C         2.82951673556105    0.21383363556208   11.48243969851884
H         3.18375115740949    0.88181605933292   12.25044410495748
C         3.04879542532575   -1.14754469524743   11.58285117977529
H         3.57663601100052   -1.55511498447622   12.43017088157340
C         2.57550526022847   -1.97636629846282   10.57230749190770
H         2.72524460771674   -3.04241792863770   10.61357895257422
C         1.90368371366913   -1.41400379357524    9.50308889609645
H         1.51781675021045   -2.02096506323302    8.69417615079588
C         0.29769829162894   -0.63214055427961    6.80130188642209
C         0.01508922049100   -1.56364497186685    6.06648484603661
C        -0.31372307451768   -2.63356876279094    5.21281231714692
C        -1.06693213567004   -2.40007806927163    4.05772595479105
H        -1.38945462992793   -1.39533415031096    3.83987398218401
C        -1.38615532686181   -3.44999269387402    3.22254152427974
C        -0.95696514115536   -4.77148756090066    3.52074933615565
C        -0.19532704558710   -4.99538197064064    4.68687926356912
C         0.11302408506381   -3.92773716212742    5.51454379256203
H         0.69367619210684   -4.07856473048177    6.40950800079947
C        -2.58183518743731   -2.08043725424511    1.69390354639066
H        -3.26382429690116   -1.66069895051032    2.44072018485038
H        -3.12333828454219   -2.24372165420218    0.76405394048141
H        -1.75907782209926   -1.38029940356502    1.51504702451900
C        -1.05125673077845   -7.04862463744494    2.70979381260507
H         0.02494841330155   -7.22900751859915    2.68512014123574
H        -1.51741981454023   -7.50308454457521    1.83640069970863
H        -1.46982332207646   -7.48717988222155    3.61739758493355
C         0.97050925152022   -6.53654890331788    6.09335877181521
H         1.92122269830902   -5.99450633109934    6.07613549731153
H         1.16708316809565   -7.60717439903438    6.07295748776407
H         0.42045270773084   -6.28778883408654    7.00639131442775

