54
CSD_code = IJAPOZ | q = 0 | S = 0 | Stoichiometry = C22H29N2Y | MND = 16
Y         2.85855757522090    6.67597118366336    5.32078101478942
N         1.26867485919443    8.26641201066713    4.67413448054186
N         0.58625956794769    9.14766650253728    2.59812076905837
H         0.02993602123683    9.85045416776284    3.06098249745674
C         2.09567310234362    7.25392836525413    2.72717653424982
C         3.09284941669388    7.40750601266471    1.76203355465527
H         3.35808361790797    8.32898939039699    1.27239486466595
C         3.75275090121801    6.18632787575135    1.60754811766446
H         4.57340022240305    6.00682027362607    0.93569867948818
C         3.17447407889999    5.25187666207376    2.45522473462844
H         3.40181933385706    4.19790272840986    2.48518957889494
C         2.15761125217447    5.88516643072524    3.21113770481416
H         1.26861431720386    5.35388060520372    3.55998071578990
C         1.26574264182187    8.26813281976979    3.35747652047820
C         0.48144603287052    9.26137608228063    5.40186208675415
H        -0.51940773633580    9.36270085403967    4.94692052709717
C         0.29124741174019    8.79022333162133    6.84287589082755
H        -0.26909998172541    7.85842346098165    6.86657252817423
H        -0.25611269635973    9.53903429655381    7.41171750169642
H         1.26475547292845    8.63393252585337    7.31454744498455
C         1.18577818463558   10.62534961726213    5.39717169973104
H         1.40857599135306   10.95753305303873    4.38570986880815
H         2.12500703287628   10.55121779291880    5.94039658298712
H         0.56060218652874   11.37264354924940    5.88081746520263
C         0.35729403883183    9.04749603553491    1.16958729025121
H         0.89019116175876    8.16033480988597    0.81743604121925
C        -1.13840679078448    8.88386908700168    0.90178537488247
H        -1.52004612086350    8.00443760528454    1.41526871612846
H        -1.31605240527170    8.76569908772635   -0.16320717734206
H        -1.68837284665355    9.75779429866015    1.24752086514409
C         0.90896235436672   10.28992971967043    0.47266141150758
H         1.96749894090518   10.40591486947383    0.69003967670296
H         0.38552136769230   11.18216088695156    0.81143919146650
H         0.78372967616739   10.20284081226752   -0.60269135597786
C         4.50102970285582    8.72693410696807    5.06156081286944
H         4.26086831312039    9.62430286224475    4.50884883861336
C         4.38205984061336    8.55528433157422    6.45753437526036
H         4.05729487434315    9.30687513529972    7.16538467080518
C         4.95826942297542    7.31226519315618    6.79535610889102
H         5.13672618361698    6.95226997901300    7.80012055490304
C         5.41922591521461    6.70487944385371    5.60395183455546
H         6.03177839852932    5.81428564106130    5.54267438039604
C         5.13751894264547    7.58421662844061    4.53139630801507
H         5.48277351457020    7.46816495836749    3.51335467373367
C         0.89898754880147    4.01589776136629    5.80434734749697
H         0.13417162799189    3.50698243312522    5.24144342551359
C         2.25565010854884    3.67467311918470    5.82433401601490
H         2.70514299511227    2.84737221955888    5.29904693611612
C         2.92609709274066    4.55770862636796    6.68283945221122
H         3.91182006341181    4.39111963807186    7.10342896962633
C         1.94467517233984    5.48083291234116    7.20941735892989
H         2.06187122072169    6.03422862610412    8.13936030810533
C         0.69496007413634    5.09911493032190    6.65275829399565
H        -0.26357919510251    5.52714464881338    6.90532993652994

