54
CSD_code = IJAPIT | q = 0 | S = 0 | Stoichiometry = C22H29N2Y | MND = 12
Y         4.48055843083852    4.39436241092335    1.50379027464456
N         3.73592970095066    4.34369527270627    3.60558721812934
N         5.02024228467066    2.69167953197533    2.81627588439421
C         2.01933555461457    3.49458227621117    0.92671124632374
H         1.28373254106406    3.16770747582173    1.64661256888453
C         2.15128821362112    4.80448061151966    0.41458212411460
H         1.50211056275989    5.64160290958659    0.63884301621310
C         3.11621345894634    4.77013619342157   -0.61998708879586
H         3.31833155853122    5.57101225311261   -1.31866716926807
C         3.60274187986045    3.44397589638806   -0.72009238813526
H         4.24131442832125    3.06348167061386   -1.50760468251000
C         2.91362923330564    2.65897461637268    0.23332706315813
H         2.96272806140036    1.58283186389151    0.31758724807494
C         5.55238610469893    6.60922569213743    0.73000384471504
H         4.99970651646952    7.43606326419559    0.30229715995593
C         6.21214313315058    5.59173077844411    0.00177082740413
H         6.24096204294715    5.50253255709359   -1.07593012725143
C         6.99023123366833    4.83874819420873    0.90986046198100
H         7.71238333724320    4.08057836934848    0.63568235490130
C         6.82934676904026    5.40405055843875    2.19414265853751
H         7.37613491799968    5.12462229203838    3.08334179161394
C         5.93762615003625    6.49118604296308    2.08640376009450
H         5.72151826776393    7.20856281183374    2.86563937964504
C         2.93247881712450    4.98936823272921    4.63323407194950
H         3.14505816507164    4.54411036611121    5.61716473639505
C         1.44067439898715    4.81995547920857    4.32438134004725
H         1.18110898720800    3.76545118752415    4.26000733847664
H         1.20450554018559    5.29139346474892    3.37216835304165
H         0.83956752958052    5.28018459864864    5.10521827899091
C         3.28922240835711    6.47604112325823    4.67981127127661
H         4.33284188072633    6.60189235417747    4.95958456519454
H         2.66766256174575    6.99198928047111    5.40793312784057
H         3.12933410067963    6.92276475170230    3.69691542998843
C         5.81380669306675    1.47944577433964    2.95762633805164
H         5.37429019425664    0.81671188552954    3.71870647963079
C         5.82983498584588    0.75291092832865    1.61219555007734
H         4.83346488306848    0.39673540321591    1.36078386262632
H         6.50458766845021   -0.09912192577208    1.64858050870525
H         6.16361849214800    1.43865037462150    0.83020017589119
C         7.24402037123065    1.82096857703886    3.39177535156249
H         7.23044075373690    2.34091231080878    4.34603749595124
H         7.71464412507218    2.46232331301448    2.65017461187251
H         7.83177232678242    0.91216833689816    3.49830769279438
C         4.34789106763814    3.18949193200541    3.84918680382956
C         4.27452408050412    2.50163770208202    5.15409926968480
C         5.09468384342543    2.62362381348550    6.21388620949934
H         5.95012484410251    3.27165328699552    6.28750981380861
C         4.64713503738638    1.75057103254541    7.27640634839620
H         5.14243654485965    1.66699223950067    8.22701617044586
C         3.55140705050508    1.09210876319513    6.87762916909625
H         2.98069473837460    0.37132106215806    7.43318347715407
C         3.19491153895373    1.51071658300230    5.49032539450564
H         3.17498970559113    0.67131805739501    4.79237509139179
H         2.20747228342793    1.97588616778217    5.45259824499565

