17
CSD_code = IJAQAL | q = 0 | S = 0 | Stoichiometry = C8H6HgSe2 | MND = 2
Hg        9.92929196163986    2.67966294602931    3.75100352616433
Se       11.32474013603252    0.09906872689983    6.07220226235319
C        12.84257879106099    2.08179115163855    5.10064444092906
H        13.20469433423025    2.95691052688746    4.57566933299746
C        11.54657897695553    1.65407653964107    5.00708994746670
C        13.11587393505761    0.24893441072202    6.52331373681605
H        13.57799348321969   -0.46065952702136    7.18558119806581
C        13.70307179255145    1.31640748973698    5.92837676351370
H        14.74070223114844    1.57166612570252    6.06681945162088
C         8.31200764867193    3.70522758279956    2.49489225638002
Se        8.53381929164141    5.26026653214963    1.42981842686344
C         6.74269657147113    5.11036176528370    0.97867518613884
H         6.28057017079477    5.81995218692041    0.31640891176277
C         6.15550541436273    4.04289086906307    1.57362262060110
C         7.01600487694212    3.27751634423524    2.40135659394717
H         6.65389509201486    2.40239885512230    2.92633881150605
H         5.11787529220472    3.78762747418976    1.43518653287346

