99
CSD_code = IJAXIB | q = 0 | S = 0 | Stoichiometry = C32H58Cl2N4Si2Zr | MND = 6
Zr       -1.41308170718633    6.88927865962014    5.77246808022181
Cl       -3.14041212559880    5.28698104645952    5.82436292818411
N        -0.71089557631382    7.27194275926180    7.75561008771056
N        -2.82284162823430    8.54506377702315    6.94324091445991
Si       -1.66149361024491    8.53315043236376    8.35894090368633
C         0.13976131755126    6.47113309417330    8.54895461397554
C        -0.33165756127455    5.26677867705060    9.10756564652515
C         0.49801540252938    4.51201138255297    9.92212771831659
H         0.12710808951332    3.58973753691697   10.34279167498220
C         1.78623701350310    4.91539166721950   10.21068233667316
H         2.41568083274739    4.32240428798593   10.85735807138432
C         2.26206701689880    6.08010022326160    9.64546276813492
H         3.27493063444639    6.39306910792577    9.85064087209418
C         1.46477970398478    6.85492297682444    8.81647582184842
C         2.05856724728490    8.08858026394707    8.18256091356145
H         1.29450877889442    8.49857971288124    7.51205045190633
C         2.40889220678270    9.14157138818316    9.23523878939072
H         1.54477232258608    9.35786891106467    9.85747034512061
H         2.73955405245490   10.06368569779916    8.76016549626440
H         3.20871084071640    8.78424658363054    9.87935207167335
C         3.30092707406164    7.72253369323207    7.36345403529505
H         4.12874661446802    7.46312736267571    8.01867477737842
H         3.61549769564062    8.56089191788614    6.74297979596446
H         3.09455483394279    6.86161202148875    6.73049374585713
C        -1.72021688211609    4.75346258909399    8.81348311004822
H        -2.23111703733565    5.50066042618331    8.19062394945364
C        -1.64712384747751    3.44440199792946    8.01996883697026
H        -1.04439526360128    3.57936591373408    7.12356091219939
H        -2.64591569818402    3.13649691829726    7.72030534899929
H        -1.19959115819690    2.65547539572718    8.62035552789354
C        -2.53179336011068    4.54426200673423   10.09546194174520
H        -3.56768707687632    4.32434174023447    9.84570559573867
H        -2.50002019647736    5.43019377902308   10.72469286224609
H        -2.13865135378709    3.70889335039937   10.66964749661074
C        -2.59085742008149    8.29262230595829   10.02439571750605
H        -3.30691052567472    7.47857633821013   10.00039814958261
H        -3.11983283110005    9.19153514193169   10.32898900059172
H        -1.86923127046355    8.06456503340215   10.80304402976450
C        -0.95068133195870   10.31047875930314    8.58225317923318
H        -0.41847499991054   10.36873674846875    9.52552713778864
H        -1.74022556460327   11.05490130226515    8.62217423190341
H        -0.25523962247187   10.60791702810280    7.80542025836749
C        -4.07745897025417    7.86458488684695    7.27319246542514
H        -4.68228304963069    8.47365217344188    7.95958717120941
H        -3.88455394295475    6.90266443461613    7.74713148884901
H        -4.66021624862197    7.68906582483894    6.36703847717159
C        -3.17784848666219    9.87297296660120    6.46668121703820
H        -3.80203807814316    9.80827259039410    5.57161014896841
H        -2.28491844330760   10.44709746721293    6.23530938521609
H        -3.75052001735542   10.42871766482615    7.22327330944700
Cl        0.31426024047813    5.28729638833036    5.72280168888290
N        -2.11521531472150    7.27198339630213    3.78936902659640
N        -0.00329059939733    8.54506937407964    4.60185208483401
Si       -1.16460931840673    8.53320167452998    3.18611943903343
C        -2.96587833311664    6.47117692386287    2.99603037991716
C        -2.49451120167535    5.26676529701224    2.43750368234222
C        -3.32421308949020    4.51195650290749    1.62302249369845
H        -2.95331386795729    3.58966819498182    1.20238292943517
C        -4.61243813640577    4.91533437851292    1.33449293075639
H        -5.24190384479029    4.32232331392526    0.68786191089885
C        -5.08824348017397    6.08006614472856    1.89968778733009
H        -6.10111357053027    6.39303114402624    1.69454036001796
C        -4.29092043359889    6.85492784798562    2.72860215901064
C        -4.88469037405186    8.08859705214295    3.36251062284260
H        -4.12061754269522    8.49861835226671    4.03299217749334
C        -5.23501273608716    9.14154218881184    2.30978778047132
H        -4.37088559371882    9.35781542129030    1.68755728724473
H        -5.56568308848844   10.06367459112247    2.78481960125232
H        -6.03482161607454    8.78418437442533    1.66568057832605
C        -6.12704759616716    7.72260286717180    4.18164806954660
H        -6.95488257931173    7.46319890527565    3.52644496826427
H        -6.44159383308241    8.56098478154552    4.80210516720625
H        -5.92068739784481    6.86168937654097    4.81462426726905
C        -1.10596244313676    4.75343945004610    2.73154728492675
H        -0.59509258922518    5.50070521951437    3.35430513596299
C        -1.17899539974372    3.44436991209514    3.52506240430425
H        -1.78171486463276    3.57929216159757    4.42147796700718
H        -0.18019054224814    3.13650542848544    3.82472129763066
H        -1.62650259740173    2.65542519133354    2.92468003922468
C        -0.29436910554806    4.54428134275208    1.44958719511666
H         0.74153073195004    4.32440984194094    1.69936263794009
H        -0.32617800619518    5.43022953793991    0.82038342007657
H        -0.68747702998349    3.70890245600515    0.87539705293860
C        -0.23523449193168    8.29265942710737    1.52068987260576
H         0.48078354121803    7.47858367769054    1.54470135527749
H         0.29376481850082    9.19156739695393    1.21613203348208
H        -0.95687154280652    8.06463161144405    0.74204479220967
C        -1.87546260311744   10.31051641377384    2.96288112778516
H        -2.40767921365742   10.36877154446424    2.01961370163559
H        -1.08592065620970   11.05494014829882    2.92296875284697
H        -2.57090255258645   10.60792336953056    3.73972902963723
C         1.25133761303605    7.86461481312982    4.27188896742031
H         1.85616359511576    8.47373102036086    3.58554407089838
H         1.05845140042060    6.90273508236899    3.79786832118501
H         1.83408315835771    7.68903560088708    5.17804014040119
C         0.35170081371498    9.87296827854758    5.07845340424595
H         0.97588723769349    9.80826536115104    5.97352732312363
H        -0.54123435678404   10.44708315883793    5.30982999880977
H         0.92437160070532   10.42872609673229    4.32187147001998

