94
CSD_code = IJAZAV | q = 0 | S = 0 | Stoichiometry = C33H55N2OSi2Y | MND = 5
Y         1.11183945990781   14.56587116401908    4.28453481765459
C         4.19410776442453   13.00773549176477    6.82372715775307
H         4.14653171387949   13.22979146480214    7.88792294193864
H         3.97764077615367   13.91144485895575    6.25423834325137
H         5.21660595777135   12.70537072609326    6.59023425998236
Si       -0.52030792692473   13.43035481772431    1.16762996370528
Si       -0.79973598757481   14.10223688783829    7.30454288860247
O        -0.20039725064085   17.05527813572874    4.23598742803324
N         2.90638934357173   12.90526717714720    4.28578000846546
C         4.50083891717696   13.92609415442763    2.80403530403958
H         5.39301770893706   13.70060523238923    2.23763372741524
C        -2.28486443880686   15.05781056360484    6.54956189108022
H        -2.43032276004684   16.01635340396748    7.03920236581715
H        -3.20844887284867   14.49806921454020    6.65905549784668
H        -2.13279770858278   15.24077100414859    5.48912001861242
C         3.98702586460500   12.85058508669358    3.53541677517664
C         1.53713833370381    9.80970341617967    5.81806724214721
H         0.88443889712548    8.98840518730784    5.55804142654223
C         1.80891400963833   10.77964776194712    4.86277000981231
C         2.65287517002944   11.84811590127478    5.19198522415366
N         3.02298626590250   15.75591472256986    3.33575327616792
C         3.28800361020996   17.90320536333617    4.44154247818683
C         2.19671503661381   17.79701805560036    2.27421763380044
C         0.83146677919887   14.76102148678030    6.63933501625255
H         1.63366134477092   14.19036037672124    7.12262412150256
H         0.96468932180475   15.80141582512493    6.96142695929806
C         2.93510088922325   10.92512427399119    7.40083725619158
H         3.37873901463459   10.97973631203015    8.38511612624588
C         3.08774749636326   19.27565013442621    4.45596762274728
H         3.43126075278696   19.85226262055972    5.30374626278824
C        -0.15262097033095   17.97674187282975    5.33605986531211
H         0.89298165995441   18.22056658184203    5.53980783618422
H        -0.59295762932571   17.48693777723364    6.21205385381463
C         2.84546590268740   17.15684835578703    3.33978167078269
C         1.22086862408007   10.63824758972256    3.48728796478186
H         1.68868210879572    9.80119181394285    2.96583496899661
H         1.36953707124739   11.54118386650376    2.89804128126355
H         0.15429584449505   10.42776607679093    3.55018771441265
C         5.09711005368530   16.22449092194709    2.12913198001086
H         4.59673888888866   16.85668628077084    1.39849469412217
H         5.90246176862250   15.68825299291096    1.63537607800226
H         5.53089367271252   16.88419696369633    2.88079466910848
C         2.01102743291115   19.17018811278209    2.32188675279517
H         1.51513917785550   19.66641969777235    1.49841709238341
C         4.77486342287807   11.56110078718004    3.48312132624267
H         5.17326100144663   11.32484074597114    4.46884602540231
H         5.59914659243533   11.62551629925153    2.77870519708589
H         4.12313643112199   10.73985367432790    3.19049483748422
C         4.12309205253131   15.27010863055305    2.78796294294956
C         3.23315383666973   11.90764554865504    6.47038010378025
C         3.94305910491071   17.20388731045365    5.59636309999772
H         4.21934183521418   17.91483624799121    6.37192901017414
H         4.83893056440797   16.67358159999613    5.27356029236189
H         3.25893505046445   16.46227382371275    6.01992795559852
C         2.08767364363584    9.87902893555897    7.08323372850586
H         1.86316309236750    9.11937835541183    7.81718040955481
C         1.33033598765422   13.33845864112327    0.63951550674672
H         1.99986946253411   13.75086618828806    1.39548817251955
H         1.50603048366641   13.88092686779270   -0.28501732970615
H         1.63348855706805   12.31006278761934    0.46469578539891
C         1.69340161936648   16.98833734341535    1.11568007385358
H         2.51489813244563   16.52031981242451    0.57382084968648
H         1.13932020222324   17.61384423001551    0.41841491082907
H         1.04469660559263   16.18536150030664    1.47590295190279
C        -0.95442331412691   12.25368169039986    6.83661573996899
H        -0.81635259175848   12.10746017338820    5.76795725261183
H        -1.92375245638608   11.84689817744966    7.10696226076000
H        -0.19753183133038   11.66354651010617    7.34334115692598
C        -1.14386618040278   17.53657455951112    3.27282221380568
H        -1.71124475778772   16.68574799039461    2.88977434915837
H        -0.59778153820018   18.00937935038154    2.44716791516238
C        -1.36017183542451   14.83798495194963    0.16752796569209
H        -2.44015714337500   14.77688265312219    0.25764001850609
H        -1.11799413201813   14.77084136885922   -0.88838648908189
H        -1.06124136008335   15.82318650357674    0.51006838211460
C         2.45854278879006   19.91199086365163    3.40075803038847
H         2.31624274934587   20.98259171073779    3.42053175669371
C        -1.31927934550957   11.80702367606593    0.52733305792585
H        -0.87891840195979   10.93806893857662    1.00675874554499
H        -1.18787281163050   11.69033581280959   -0.54422505749222
H        -2.38537921221942   11.78630966702014    0.73079188113090
C        -2.00260669542423   18.56885305540136    3.99398764706225
H        -2.45661198196423   19.28040983362467    3.30894282726483
H        -2.78518281333284   18.07655467817153    4.57197152345823
C        -0.97146963372205   19.19737154219981    4.92555379706213
H        -1.41389886297874   19.70147289547126    5.78107223759080
H        -0.34644504015619   19.90271856565007    4.37680476471462
C        -0.72250536793037   13.70513412634769    3.02177914764983
H        -0.98441245880784   12.74036632790208    3.47564234768844
H        -1.61036026447392   14.33183715183928    3.17554437991052
C        -1.01909729138244   14.21352385179974    9.20986149618922
H        -0.25697155669633   13.63378505250562    9.72083951771154
H        -1.98577200665213   13.83539855717711    9.52828723310893
H        -0.93766542033801   15.23840070763237    9.55945758322767

