57
CSD_code = IJEBAA | q = 0 | S = 0 | Stoichiometry = C20H32Cl2N2Ti | MND = 12
Ti       -0.29659266087225    5.89672619966340   11.27787742777042
Cl        0.80114075827763    4.67490388946904   12.79989448851644
Cl       -1.94465025500706    6.22125971651593   12.73226900511864
C        -1.20129528075697    3.72616583862565   10.65199645259109
C        -2.07991766846540    4.74631271209461   10.20769551424187
H        -3.12522728800756    4.84751137936442   10.46918182835246
C        -1.40826993218018    5.54625756508668    9.25912788558545
H        -1.87657330543974    6.29387843785658    8.63250072387852
C        -0.10556693548164    5.01865300694182    9.09772165153366
H         0.61016239048617    5.31328371076308    8.34114845029832
C         0.02887617429903    3.92352142363537    9.96858871958215
H         0.89459060390044    3.27848292645671   10.02629336190635
C        -1.62052775671149    2.48827955689886   11.42952642464896
C        -0.41424081778813    1.60180706655419   11.77815408071069
H        -0.76324546080856    0.75434006812558   12.36152604163027
H         0.30700693641835    2.16377476941332   12.36460228072511
H         0.07788199502835    1.21552087551121   10.89093120001463
C        -2.27753795152491    2.89252649204870   12.75399169044088
H        -3.09816118191566    3.59087492883957   12.60995729874815
H        -1.52881005866274    3.37707636211223   13.37923380607321
H        -2.64090741053326    2.01043986141160   13.27543004858427
N        -2.52729896141606    1.66190041200820   10.60411856187679
C        -2.11718731244216    1.52109415656853    9.22202753281616
H        -2.37520233141929    2.39664758996542    8.60537006239907
H        -2.62040882432853    0.64843623285105    8.80306924509169
H        -1.04539569567161    1.35998459495939    9.15436723555576
C        -3.94607522942297    1.92907502267377   10.66600635237894
H        -4.29739229054710    1.90856754676559   11.69260358106460
H        -4.45451989192718    1.13093871814363   10.12308214061785
H        -4.23677371475568    2.88432310446538   10.20251981614937
C        -0.26980731296196    8.28828891850231   11.16787948845983
C         0.36873905327182    7.76201699685403   10.02000945060660
H         0.09909668184983    7.96682078439669    8.99318074095049
C         1.54050183741622    7.07493599529171   10.42275269754275
H         2.30541626155016    6.67771237831727    9.76675607599195
C         1.65328178229403    7.20726045284482   11.81902472083725
H         2.48926593902325    6.87885782763251   12.42288030812503
C         0.53131557037601    7.91597007015787   12.28344505381389
H         0.36365316026087    8.20340215883703   13.31281587199648
C        -1.38272474657130    9.32590893567103   11.15171177325262
C        -2.58060898230219    8.78377419433529   10.36136995733858
H        -3.37712007572121    9.52337414322606   10.33652134393030
H        -2.95041571082967    7.89064116149321   10.86701911202545
H        -2.31097586104949    8.52332285896643    9.34105487185639
C        -1.88653404306384    9.64286211082210   12.56863552815256
H        -1.10567769536654   10.07110228697153   13.18883201217639
H        -2.26107433310628    8.74176758197199   13.04611322973701
H        -2.69100991797361   10.36978974892806   12.49726202283298
N        -0.88850371208720   10.60025998885132   10.58849344976359
C        -0.98671560341808   10.80814141328032    9.16247680889418
H        -0.33077999674992   10.15123586536172    8.56979289383690
H        -0.68845994877603   11.83716651001217    8.95914361676003
H        -2.01270035264118   10.68978251480113    8.82619278434547
C         0.42968782241241   10.98230951966014   11.05305783070156
H         0.52829975923537   10.79467811390453   12.11788245072793
H         0.55698640957367   12.05191694700273   10.88127321389654
H         1.24028337302898   10.44983635611465   10.53190978254736

