58
CSD_code = IJECAB | q = 0 | S = 0 | Stoichiometry = C19H32N2NiO4 | MND = 6
Ni        7.42554985458290    0.17162560374953    3.64355067247116
N         7.99280749320082   -0.19747456652145    5.96169315020222
N         9.52644392855871    0.58315845966650    3.70200961591609
C         6.76262809567215   -0.61139208629994    6.64389462272872
H         6.99325345118149   -0.91302062271697    7.68265924058138
H         6.35351164749130   -1.47789067527146    6.11945334385166
C         5.74016995265795    0.51511082788152    6.65483413512428
H         4.81417501555797    0.16290023845794    7.11177711313092
H         5.53623886154359    0.79943435840003    5.61978939131664
C         6.30618401250992    1.70887684196981    7.41055011689374
H         5.60064623502877    2.54045689522368    7.39575295219145
H         6.48591988880334    1.43722514048322    8.45532085581104
C         7.61154944373405    2.11825656492367    6.74024871128917
H         8.08391913248364    2.93926957598264    7.28426984801831
H         7.38809987887934    2.44287983689866    5.72761152144447
C         8.57814664308414    0.93635478903282    6.68646605820154
H         8.77562365387016    0.62055835148062    7.73205256710808
C         9.93628362247503    1.32233454678556    6.08019994126985
H        10.29994589655630    2.20320269515666    6.62163559336700
C        10.32060887516899   -0.99253831430884    5.45139151963180
H        10.93832892619820   -1.88942322493559    5.57291805726306
C         9.63261096808088    0.98000928390255    2.28298114156552
H         9.12062140833065    1.93662200110066    2.15873991974045
H         9.10165685014872    0.22716023884820    1.68732034205389
C        11.05752093848265    1.09594864426292    1.73916348981823
H        10.99902194453034    1.34631793326694    0.67904988597562
H        11.60239943355188    1.90007887541780    2.23785529007428
C        11.78336632841686   -0.22533034316285    1.94303455048048
H        12.81155636118420   -0.16441684908094    1.57991511112562
H        11.27340570239356   -1.01374695860943    1.38580826184094
C        11.76524217013212   -0.54868849227666    3.43041158894672
H        12.25192876447275   -1.50809988556092    3.61548245441679
H        12.33259321423665    0.21746509497769    3.95911351882957
C        10.32201747109852   -0.63438308573426    3.95752371164063
H         9.82836877046246   -1.44634874017563    3.41352434721137
C         9.91264092221042    1.68910471593267    4.59127713983068
H         9.20791802480113    2.50545802403230    4.42689250899275
H        10.91771898298018    2.04949397824335    4.33209076403282
C         8.92668600183252   -1.32832593667651    5.98646521824278
H         8.49513923763829   -2.13642190961575    5.39250049807101
H         9.04417098592423   -1.68905261727425    7.02547162057406
C        10.88966370114334    0.15154996705550    6.28213051637932
H        10.92882083533421   -0.13307595201623    7.33582787323877
H        11.90370926515854    0.40830523392072    5.97646912526213
C         6.29130637637099   -1.67347775300640    3.08440770117065
C         5.63678022545203   -2.84632107604471    2.40077832561353
H         5.60727656296807   -3.68469861057523    3.09514492911436
H         6.21773159671740   -3.13917499820828    1.53054067078701
H         4.62365891486161   -2.58347525775656    2.11245708599243
C         6.42909062409133    2.04911419340082    2.52144904280718
C         5.59686514846251    3.27138535560477    2.19829163576756
H         5.72552517535132    3.53900813056518    1.15342379247196
H         5.87411792797332    4.09729617906429    2.84742504263804
H         4.55082125084491    3.02544940634610    2.36953331202504
O         5.61631977808078   -0.74058852195699    3.56874495261433
O         7.55070713625432   -1.63429965425127    3.21091076380221
O         6.89719995126602    1.95345362390455    3.70562635889528
O         6.66858653952602    1.18120052609831    1.67353848014264

