41
CSD_code = IJEFAF | q = 0 | S = 0 | Stoichiometry = C19H10N2NiO9 | MND = 6
Ni        2.03419250996616    3.04418643872998    1.97918947099816
O         7.12694750732180    2.62509335396903    1.36226737666138
N         0.94268162172874    5.35691979975967    2.10590680560637
C         5.92583357071725    2.90010986026669    0.80337197500140
N         0.12606201507945    2.80072393824307    2.74241738674781
C         5.77875033419507    3.17785733102215   -0.50473263604893
H         4.79388981236746    3.37856980547397   -0.89697319508672
O         6.87407029534167    3.47188015882619   -2.60509158722135
C         6.90003572522857    3.20749569405637   -1.42787420991623
C         8.18157639213036    2.86179657685099   -0.74216302300524
H         9.06699640260824    2.83383281411900   -1.35022514699884
C         8.13983774104509    2.61886750826912    0.55115133823233
C         4.76157193181274    2.79360224448241    1.80057296484988
O         3.69642289515346    3.30165860991754    1.27739297070092
C         1.34679411142349    6.56375190977494    1.80283875473239
H         2.33895356820917    6.63281806575446    1.37952926083966
O         4.93121833146378    2.29515665685144    2.87700388712484
C         0.56314767116690    7.70894543844545    2.00303691686128
H         0.94679129923942    8.68128148982284    1.73682585745953
C        -0.69123318624739    7.56062675173676    2.53961710155937
H        -1.33350382446610    8.41277331093289    2.71190840568734
C        -1.14946064723016    6.27299320522128    2.87163787592200
C        -0.27535900779897    5.18628571768795    2.63165598871939
C        -2.43750420594299    6.03891154990501    3.42887151030521
H        -3.08461576073296    6.88662984209532    3.60023623059111
C        -2.83833339599410    4.78321500740223    3.73518642134088
H        -3.81498444073434    4.59981957408345    4.15778158426913
C        -1.98765154714794    3.66174040653999    3.51279407376417
C        -2.39302807823105    2.35548116653559    3.83086627591278
H        -3.37335357034546    2.19144648110721    4.25454914348450
C        -1.53217859456514    1.31284868973397    3.59672050618523
H        -1.80233585866562    0.29471821206285    3.82609079634149
C        -0.27667557439068    1.58210498644434    3.04926208137313
H         0.43765519293432    0.79063169984076    2.84877480409261
C        -0.69699858093464    3.84926837900610    2.95924865464633
O         2.78058449770452   -1.01305659567157    1.60059776495355
C         3.50109953749685   -0.25831713826337    1.12758330639042
O         4.30464943209066    0.35086784542756    0.57746218523535
O         2.26152306815225    1.49560618499879    2.03397653185848
O         1.39876786168995    3.34989897513940    0.62241337440012
O         2.41876294719716    3.69025805327069    3.30042021548038

