72
CSD_code = IJEGAH | q = 0 | S = 0 | Stoichiometry = C36H28BrN2O3ReSi | MND = 6
C         2.70189280221424    4.03168640039350    2.83368542793926
C         1.53569001539284    3.17452814061257    5.23917468664391
C         2.59890039265237    5.67844814472218    5.17652017192359
C        -0.68269997497214    2.59992454874211    2.94397528781357
H        -0.11050423512633    1.91767339402475    3.55950585854496
C        -1.81265562536663    2.15062274969810    2.27426907246902
H        -2.10441464652510    1.11580826784988    2.36237897007616
C        -2.54577427265197    3.01772770448301    1.48318120629678
C        -2.12116788984263    4.36523280116293    1.42221515878691
C        -2.83851376029897    5.37841032994308    0.72829478943070
H        -3.74884948949864    5.10376282972641    0.21862954662623
C        -2.41547929980123    6.66550968237579    0.72811066653894
H        -2.97474841716182    7.42260109876428    0.20026681875320
C        -1.22897696680576    7.05661448030450    1.40562917061508
C        -0.76088577345173    8.39178094594196    1.44527307462022
C         0.45190600409032    8.62500053573107    2.05673966871668
H         0.85930535890877    9.62366580256698    2.09858550815923
C         1.16944656778044    7.58236622742268    2.65530041886243
C        -0.46792879690638    6.07378388579033    2.07053549798851
C        -0.94887084285830    4.72356027374468    2.12158451519101
C        -3.71339990105589    2.52564138058465    0.73941025321900
C        -4.72209381641195    1.83534681283049    1.40592565896729
H        -4.65591577538993    1.70064486397269    2.47570054056765
C        -5.81336577238566    1.35074807671681    0.70901416525659
H        -6.59566535805012    0.82563052584579    1.23633084295966
C        -5.90222805300292    1.53501527381523   -0.66088931004164
H        -6.75306121676686    1.15277750294014   -1.20447444954370
C        -4.89443773350267    2.20641191034671   -1.33323123483500
H        -4.95463341300978    2.34315146441251   -2.40282708129443
C        -3.80664906409814    2.70300046868100   -0.63916901430795
H        -3.01076707226403    3.20809560693467   -1.16817643878498
C        -1.52568367432508    9.51051822902938    0.87736118043938
C        -2.84201085185348    9.74077608737949    1.27025597003186
H        -3.30214385652789    9.09130661010806    2.00100723592968
C        -3.54296854998003   10.81582340852381    0.75569447796461
H        -4.56062134207498   10.99115240182610    1.07139035891465
C        -2.94293113110758   11.66599761893588   -0.15848815806420
H        -3.49410289085154   12.50186703200209   -0.56238001154577
C        -1.63213390731698   11.44594718316157   -0.54821862991474
H        -1.15941494453085   12.10919930904729   -1.25729753979426
C        -0.92291029374870   10.37928051562294   -0.02795442604161
H         0.09792690584556   10.20282890099449   -0.33560538569124
C         2.46971331363872    7.88359482829588    3.27328972483512
C         2.56835611032096    8.87428032883000    4.24516490860962
H         1.68015325130591    9.40309436987279    4.56139289501529
C         3.78616563531819    9.13519141764902    4.84164700484358
H         3.83980487175444    9.88499549139739    5.61588556266864
C         4.93889843123874    8.44839779146182    4.47385507109660
C         4.83083995267026    7.49091667214000    3.46947647928516
H         5.71065233715377    6.95162997025878    3.15222100774026
C         3.61830219156784    7.19992469429858    2.87780018025722
H         3.55644886468708    6.45890985785893    2.09320601711832
C         7.03352146400610    7.13888960292078    6.30049231399251
H         6.24295845023708    6.88010252302534    6.99841480658737
H         7.95424324447880    7.24729836826228    6.86591095028904
H         7.15708683397260    6.29669713213092    5.62623983276628
C         6.48377195635158   10.21360642687158    6.53639779697103
H         6.18084435022242   11.12071499117187    6.02172371568320
H         7.44311554588292   10.41055765701593    7.00495968186161
H         5.76781740680040   10.02560745240855    7.33043269458413
C         7.92951882124244    9.09431757233817    4.01632521341361
H         7.68062453755379    9.97724751565180    3.43487939624796
H         8.03408112107005    8.26531581829953    3.32333802799006
H         8.90096805722548    9.26359893040745    4.47037953157767
N         0.70288201247671    6.33934723038797    2.69178345969501
N        -0.24183584608197    3.84488988809454    2.86724741302032
O         3.50113152683894    3.61988229514824    2.11679549149513
O         1.57061852460308    2.28174874685892    5.95838330661482
O         3.25742768997218    6.23242131874075    5.93321377555414
Si        6.60615830101846    8.73124063030194    5.34463660700668
Br       -0.55616367887062    5.64323034650036    5.49661887503912
Re        1.34363528397942    4.69688070368901    4.04195373775652

