84
CSD_code = IJEMOA | q = 0 | S = 0 | Stoichiometry = C40H40P2PtSe | MND = 4
Pt        0.37422487390167    5.10025878250334    6.25098941230154
H         1.89312567911814    5.15888300977328    6.27720777096464
Se        0.52426192432889    2.69570706045176    6.21032980327522
C         2.44735267229883    2.06473092815387    6.11387354769998
C         3.19017345133518    2.50891141486861    7.36343793448320
H         4.22284408589614    2.16053131492198    7.33292134744313
H         2.71121546903241    2.10285181772693    8.25297066587964
H         3.19388740813878    3.59567161764859    7.43817394876182
C         3.09686940808704    2.62173410949480    4.85692907750544
H         3.09074796974505    3.71130562758487    4.87472912255768
H         2.55593451884096    2.28793457514799    3.97282549712307
H         4.13015930389323    2.28171555485687    4.78293412200562
C         2.37411269862732    0.54304011928066    6.04929468647980
H         1.81220425809735    0.22514342626457    5.17216064621299
H         1.87696657764394    0.14737150894700    6.93387058635950
H         3.37746953104828    0.12122720659706    5.99371539098874
P        -1.92485414015902    4.91582772570164    6.41582480252298
C        -2.74834261975207    3.32588750811144    6.74161506996855
C        -2.87725574501070    2.44820255565970    5.66726277941379
H        -2.52028270880475    2.74960791532287    4.69062594597875
C        -3.44923220442079    1.20499328636498    5.85200310251206
H        -3.54572854518181    0.52663963183296    5.01703501796103
C        -3.88982281652889    0.82606713082380    7.11013888570541
H        -4.33456447689318   -0.14746441771004    7.25619921265373
C        -3.75056704131155    1.69059306254548    8.18240501340669
H        -4.08556563474721    1.39172827795140    9.16539481037681
C        -3.17673090812331    2.93717161985435    8.00452228947361
H        -3.06140930188575    3.60482836056068    8.84747516394704
C        -2.98873086945769    5.55037920536910    5.08529151757970
C        -2.36356210675704    6.09344017288243    3.97075368652042
H        -1.27865074274635    6.11715788149693    3.94106956176541
C        -3.11078696197535    6.57390150265845    2.91155255337700
H        -2.61810264660047    6.99008100123968    2.04492663376826
C        -4.49256462297013    6.51310900599054    2.96440498920024
H        -5.08250117026481    6.89263107521472    2.14296033187961
C        -5.12235352654353    5.94352005683606    4.06061635414507
H        -6.20045826277658    5.87482504225094    4.08699772219153
C        -4.37648673433362    5.44964663751317    5.11408309159911
H        -4.86572261893951    4.96448003283348    5.94812031541993
C        -2.33497086166117    5.86482667399084    7.91327311181520
C        -1.32748530355663    5.85442689069508    8.87725943300754
H        -0.41656206078727    5.28630300387759    8.67700597749331
C        -1.48181969505745    6.54714061881020   10.06225463414665
H        -0.69308048981230    6.54376118221021   10.80036688248125
C        -2.65274127641186    7.25286324417926   10.29458224666325
H        -2.77937186592401    7.79944301281966   11.21775957564731
C        -3.65852046559283    7.26230337992907    9.34198977716014
H        -4.56905056936375    7.81460220758534    9.52594370482972
C        -3.50353443935201    6.57553327155143    8.14937571961898
H        -4.28111713837025    6.61310361989417    7.40108409913552
P         0.46253454440915    7.40810172108447    6.13687527742948
C         1.56840688546159    7.83798126988458    4.75016391126111
C         2.19540309655457    9.07132014501350    4.61951465205272
H         2.06729260713741    9.82859485314581    5.37916067193773
C         2.99653764116080    9.32275457757307    3.51973699189716
H         3.48906966563588   10.27956781209058    3.42344323743748
C         3.17049343765578    8.35379636941050    2.54466873589749
H         3.79747035172963    8.55716715239700    1.68901101990441
C         2.54809789698652    7.12221530547774    2.67139310462104
H         2.68896490451712    6.36260137884391    1.91666203736502
C         1.75267241860191    6.86510208206318    3.77208991640195
H         1.27826429022712    5.89156588582705    3.90183274095175
C         1.21643819498246    8.22575439600921    7.58158792755653
C         1.11922464910010    9.59532909218323    7.81316780658462
H         0.56128088519255   10.22448136573168    7.13307267227972
C         1.71873489042077   10.15254190804445    8.92780118486072
H         1.64116537802319   11.21628570979316    9.10142296312968
C         2.41290781185910    9.35357898867215    9.82211475996591
H         2.87660798007981    9.79522005949030   10.69195590936176
C         2.50411736702648    7.98926746639433    9.60225720313668
H         3.03831722267999    7.36226962433527   10.30097947368132
C         1.90705866336292    7.42898441689522    8.48811777100531
H         1.96610020499570    6.36144410359984    8.30636570838829
C        -0.95819708887378    8.50576899476935    5.81116546841986
C        -1.28808182371201    8.90111928412662    4.51871571708748
H        -0.63992289895113    8.63770379878818    3.69422430391392
C        -2.43337182751229    9.64056211150220    4.28832881204417
H        -2.68062652483899    9.94718379180653    3.28245553033920
C        -3.26384290372179    9.98533676306678    5.34120449515954
H        -4.16188168443286   10.55638417342519    5.15746049807454
C        -2.93538345124216    9.60358192209250    6.63194843876127
H        -3.57296748334844    9.87983284356483    7.45910938410215
C        -1.79075776321292    8.86691827204285    6.86719590897759
H        -1.52574679606297    8.58100290974882    7.87575819245643

