111
CSD_code = IJEVEZ | q = 0 | S = 0 | Stoichiometry = C48H53ClN2O4P2Pd | MND = 4
Pd       16.89707038117574   11.57561636491100    8.42981522064761
P        15.87105989918133   13.53637812134014    8.55771410542241
P        17.48420496448217    9.52606671493073    7.82347594345610
Cl       18.42017256584110   11.88011134505328   10.11366969101076
O        17.75655024107982    8.17751406893522    8.61186953145838
O        16.35566638422356    9.07649470686961    6.74960109777926
O        16.36374731638338   15.04190501184463    8.63367599894893
O        14.87565542553188   13.56279025170513    7.27798086023413
C        19.59199138852694   10.77362166974360    6.72463124883568
H        18.88002993341197   11.61317814766590    6.87602702607701
H        19.98129879180812   10.83899695058725    5.70371399193293
C        20.73589164211887   10.78045545447057    7.76200433621662
H        20.64680105811280   11.62586776337331    8.44203883674538
H        21.70288035646704   10.82906829894545    7.26139472155816
C        20.57541764756965    9.45928709351106    8.52162511238132
H        21.52447267393480    9.03040339922905    8.83672568120243
H        19.94865155363156    9.62252986170220    9.40194060200030
C        19.82231811838943    8.57506136062179    7.52553153066542
H        20.51544838468890    8.14662062233663    6.79409049954664
C        18.94178592662270    7.48306912377855    8.15063499190779
C        19.65599873693006    6.84130405977161    9.31694475894149
C        19.35006994408317    7.16702111026024   10.62973851702294
H        18.55995854861152    7.87308437037398   10.83306290365748
C        20.05207360279440    6.58508264497317   11.67139536088603
H        19.80731984335754    6.84508190150300   12.69037893733124
C        21.06420954858612    5.67887097240307   11.40959999405895
H        21.61193047176520    5.22713368829616   12.22325247934502
C        21.37282093338740    5.35163710792995   10.09932647961593
H        22.16100933043427    4.64405323673569    9.88867637230646
C        20.67248718222268    5.92886937811523    9.05659901558372
H        20.90772594681498    5.67020918419064    8.03419016332744
C        18.44953283391119    6.43726263971666    7.16825236153020
C        17.78004214595914    5.33361783071964    7.68789074593071
H        17.68237989044388    5.23326055955623    8.75880814949318
C        17.23628492009063    4.37985670765611    6.84848343298478
H        16.71744432116912    3.53017039387246    7.26702395128202
C        17.35455790397877    4.51620773068966    5.47547482927652
H        16.93237264412225    3.77105566612687    4.81741857969947
C        18.00941886349267    5.61609894038931    4.95243922906452
H        18.09884321964730    5.73520919367309    3.88273596287438
C        18.54828276134822    6.57757137542539    5.79155791544147
H        19.03228140481464    7.43889156982003    5.35966352603674
C        14.78080228905707   12.47718896280098   10.77115437033277
H        15.17151491799779   11.57544098651950   10.25240287249081
H        13.75118995778818   12.27095688123840   11.08009553950507
C        15.65634924521190   12.88598086380896   11.97590678592344
H        16.48595395649910   12.19474312749862   12.11371865030382
H        15.06006776761137   12.91009217873783   12.88805026846809
C        16.17251139195816   14.28427552218688   11.62008238955066
H        16.29085951142162   14.92921612304458   12.48840002932903
H        17.13412652826409   14.19550853494386   11.10837663024355
C        15.12313471780553   14.79866264076638   10.63267300395463
H        14.24898014749031   15.18041810478958   11.16997466415257
C        15.62891052273361   15.82345834864396    9.60801011511778
C        16.54670478367044   16.82260927186813   10.27243905454112
C        17.92592398789398   16.73816995796557   10.15521587468106
H        18.36219551990454   15.95861150468671    9.55024073238795
C        18.73569353362338   17.65266448718278   10.80670158168994
H        19.80855401354860   17.57922480259734   10.70968098610425
C        18.17514014361500   18.65292928957133   11.58093054149342
H        18.80825361064269   19.36460363266219   12.08963223604896
C        16.79777741839318   18.73973084717458   11.70078786179555
H        16.35429847844376   19.51913077180672   12.30254427186539
C        15.98579468854061   17.83013117578992   11.04941992034166
H        14.91109872194152   17.90056595158323   11.13648943754418
C        14.53214504979539   16.52652070106468    8.83081291289633
C        13.19681925827100   16.15406265754874    8.87766643550888
H        12.87026044286301   15.35159800013793    9.51950330327766
C        12.26433951314978   16.80159144425933    8.08365941654884
H        11.22698958562651   16.50541398803684    8.13510740478122
C        12.65530867335507   17.81208504750970    7.22468130348464
H        11.92548014688421   18.31044478418725    6.60382701259866
C        13.98985838119667   18.17623159375163    7.15985212962380
H        14.30743366481285   18.95708239343926    6.48481985464566
C        14.92018678740979   17.53883790913334    7.95831546356684
H        15.96277511766970   17.81580451711066    7.90547231728681
C        15.57800730621979   11.31237451638013    6.96984365732232
C        15.50186234409434   10.08725768534663    6.32313212410711
C        14.59638740753207    9.88180442383844    5.28029988945097
C        13.76800174137783   10.95232846074280    4.95764891684034
H        13.05684564807837   10.81085825261783    4.16677878974582
C        13.79555656296524   12.19300196088403    5.58718507383776
C        14.74039695986165   12.35552358959792    6.60231201415297
C        14.55378830856466    8.56180633167954    4.52137941127484
C        14.27667849751600    7.40773358479667    5.49417602602234
H        15.06300991457660    7.32314363304956    6.23677829251941
H        14.22194607722272    6.46748133323533    4.94909496186787
H        13.32978343643429    7.56819752022271    6.00589539714078
C        15.91124473330107    8.35436428122997    3.83674878001613
H        16.70834902773062    8.31929762621469    4.57161871732700
H        16.10942551313235    9.16927610335608    3.14294689000343
H        15.91025593056799    7.41719703815378    3.28421516129719
C        13.46770392859781    8.53605401368851    3.44087045373839
H        12.47916087383893    8.67172306843677    3.87311392991124
H        13.48571075790587    7.56893888891767    2.94240844676423
H        13.63960011950663    9.30218839130067    2.68863550948559
C        12.82817755800656   13.31203046525563    5.22386802280376
C        11.95538530424948   13.61186165067977    6.44976722070996
H        12.56833220012256   13.92530316379259    7.28818323658767
H        11.39563519144207   12.72375078405256    6.73732250811635
H        11.25204345300110   14.40948334659379    6.22021581621608
C        13.60952431049547   14.56882976304636    4.81768045890748
H        14.22532607250313   14.92942515618873    5.63473525901885
H        12.91836356002135   15.36162566153262    4.53849004213633
H        14.25176680252137   14.35196322477620    3.96636648047615
C        11.90300706583549   12.93890025399423    4.06084837607682
H        12.47186971590380   12.71947014401946    3.16044089430229
H        11.24625259044513   13.77946073954464    3.84590129880334
H        11.27944761600206   12.08355709444139    4.30966907692152
N        18.89687982408540    9.49651848587238    6.87569283824312
N        14.77158152012489   13.61599576474619    9.85441596202739

