85
CSD_code = IJEWEA | q = 0 | S = 0 | Stoichiometry = C38H42CrN4 | MND = 4
Cr        4.62231390695586    0.00005447697496    0.00041489323487
N         4.27342882795877   -1.53784026807603    1.15764510889926
N         4.74927187269836    1.02832401758961    1.61844119880757
C         5.08067755449946   -3.12903239736501    2.87968761223292
H         5.35726418089987   -3.88971646802501    2.14845960469136
H         5.82151194785063   -3.13458973116982    3.67392207990323
H         4.11580489152599   -3.40226622477155    3.30754938348748
C         5.01580498194443   -1.76502326990558    2.23130686535353
C         5.85196568841781    1.58426807844241    3.77700439516027
H         6.13815961418050    2.55115152722065    3.36489988441812
H         6.70131427761394    1.17026390635885    4.31405745656647
H         5.04666612645102    1.73941592384601    4.49682677535025
C         5.42581369508303    0.63067200415031    2.68199473262926
C         5.71107475051176   -0.72454782810061    2.86050201502697
H         6.34261042073137   -0.98976684448611    3.69580433894913
C         3.21842048604344   -2.47361095472757    0.85644567851441
H         2.87212465987196   -2.25896971427982   -0.16079826129513
H         3.56749119520143   -3.51888116220090    0.87629591894691
C         2.02020130922875   -2.36911017665799    1.77896987422283
C         2.00264717932564   -1.53336728459340    2.88579767634504
H         2.86213961184443   -0.92033053162522    3.10942800952155
C         0.88496382046660   -1.46973313849663    3.69956351598482
H         0.88734691089584   -0.81330340872880    4.55747267609582
C        -0.23014340151244   -2.23743272743380    3.41792659358425
H        -1.10211657832269   -2.18580333547785    4.05325011068824
C        -0.22222074719979   -3.07306741182527    2.31344713203787
H        -1.08923641998582   -3.67596394774858    2.08466374063848
C         0.89475830793700   -3.13794314867074    1.50266464723045
H         0.89700604333764   -3.79189832392636    0.64124128189940
C         3.88126832969984    2.18695477250176    1.70099650300805
H         4.11283698368911    2.87874066270586    0.88070935105261
H         3.96288649509446    2.73235261455610    2.64795598279201
C         2.47394114377619    1.67159964430658    1.52280581086344
C         1.46011364085067    1.97930235882601    2.41689030305035
H         1.65769685622295    2.64569340661247    3.24567762831112
C         0.19299671732520    1.44188665548321    2.25676175924392
H        -0.59006286681995    1.69213752866155    2.95732780705742
C        -0.06675604583733    0.58071288821500    1.20393497370759
H        -1.05244683125103    0.15669238933627    1.08266389867881
C         0.94233772592859    0.26303936300463    0.31171554273899
H         0.73938565965196   -0.40070826255816   -0.51633266313544
C         2.21243306876196    0.79609643839231    0.46771145758510
H         2.95356340531369    0.61962794994078   -0.31785848465796
N         4.97112129229426    1.53781653653449   -1.15691193112757
N         4.49525059134250   -1.02820706909495   -1.61761189148542
C         4.16366532310776    3.12902921244571   -2.87884537779951
H         3.88779456051541    3.88988364256903   -2.14752913739709
H         3.42235578067160    3.13476641618548   -3.67263831477843
H         5.12837843817946    3.40188031461804   -3.30731548915679
C         4.22851106054102    1.76504951338374   -2.23041826219230
C         3.39223617538579   -1.58418754067795   -3.77601369815163
H         3.10629406024500   -2.55115236752219   -3.36393121698046
H         2.54270338117606   -1.17027865519740   -4.31284635057576
H         4.19740752243764   -1.73913849045233   -4.49602238712321
C         3.81845456516869   -0.63060630846948   -2.68102439627630
C         3.53305035029846    0.72459998348880   -2.85943750788560
H         2.90129923611146    0.98982079246501   -3.69457086948860
C         6.02643689168101    2.47339540881130   -0.85621349086913
H         6.37341430315161    2.25849926826354    0.16075139583693
H         5.67745736765824    3.51870530273846   -0.87557691180770
C         7.22392196798576    2.36889596824747   -1.77969237600394
C         7.24089807013925    1.53244215643641   -2.88599397422912
H         6.38154441684800    0.91884795810089   -3.10844863354120
C         8.35783111058264    1.46887871887185   -3.70077891808627
H         8.35503228319526    0.81187060908750   -4.55820146622402
C         9.47275359008517    2.23737869943058   -3.42072650987897
H        10.34426926783222    2.18567023533128   -4.05670840728482
C         9.46540093315474    3.07374291839476   -2.31680355932918
H        10.33257145769849    3.67698184951719   -2.08893213727298
C         8.34917292430428    3.13852830658773   -1.50498207555994
H         8.34749925500283    3.79289964095608   -0.64382639329602
C         5.36331936096438   -2.18678788704704   -1.70032449996729
H         5.13185486033905   -2.87867314288815   -0.88009505323305
H         5.28165711809295   -2.73208790987450   -2.64733510552641
C         6.77065878993938   -1.67144666474282   -1.52220066650837
C         7.78436355951924   -1.97911362224926   -2.41644718263873
H         7.58664866847874   -2.64548148259636   -3.24522415363422
C         9.05149480096568   -1.44168756681433   -2.25651183025054
H         9.83445269812718   -1.69192845658584   -2.95719611735418
C         9.31138647160999   -0.58052949633317   -1.20370299666316
H        10.29708675707212   -0.15648406893623   -1.08258923962696
C         8.30244058946287   -0.26295493231200   -0.31128075849649
H         8.50553318576518    0.40075720245259    0.51676769088569
C         7.03232785697291   -0.79605140474797   -0.46706031222102
H         6.29128970951206   -0.61962363455090    0.31860570393346

