60
CSD_code = IJEYED | q = 0 | S = 0 | Stoichiometry = C26H24N5O3PPd | MND = 4
Pd       -0.17200537207127    4.90751609202696    1.65003400558054
N        -0.88046157939591    6.45516827680297    2.81449823070884
N        -0.29655632916600    3.63295269942764    3.36234587194956
N         3.00152480663715    3.22708739495163   -1.37435325590619
N         2.84898474665734    1.42598264556019    0.24345119980786
N         1.26124236415384    1.54329267725030   -1.59856964029696
O         2.45514448182810    6.34054861799723    2.22842487494889
O        -0.79902588243375    1.98397100365839    1.86829475319280
O        -0.04699664329607    4.85205600289052    5.29373649926238
P         0.88098055807589    3.33502091987154    0.43078382951605
C         0.53763680396702    7.82315603163151    4.16552849572117
H         1.51817810776547    8.24041324653284    4.33165548081193
C        -0.64192182214158    6.40380644510171   -1.12336143603531
H        -1.36568796268681    5.70466683737787   -1.52533013228516
C        -0.09336322297180    6.21315854679675    0.13577899712955
C        -0.50374552591930    8.01910882518857    5.05682615108208
H        -0.35854741188393    8.61643293254111    5.94398659388182
C         0.84687664916697    7.13400525071436    0.60411178432423
C         2.05025243196685    2.12115880373578    1.23035710398577
H         2.71065212585866    2.67519460043850    1.90967450177517
H         1.49190021154734    1.37929326628341    1.80738884980447
C         1.24959093007382    8.22804833124059   -0.14100709961002
H         1.99027722099794    8.91609192507799    0.23972490553214
C        -1.35160464740900    0.82641683060041    6.87722936668933
H        -1.49449866220474    0.49032186064018    7.89382309316786
C         2.01746880382761    0.69039386749459   -0.69619141622649
H         1.32159902823846    0.06047983659989   -0.13683755058705
H         2.67336992449256    0.05562764101136   -1.30149603858203
C         3.72115335363225    2.32543577235948   -0.49231314360212
H         4.30901869462486    2.91399089461699    0.21670430010515
H         4.39805716729538    1.71786284833623   -1.10229605864656
C        -0.26363804990491    7.51420057112275   -1.86985084182558
H        -0.70445754205844    7.67365223267761   -2.84380169195785
C         0.67507849452878    8.41243265388474   -1.39000531968186
H         0.96603029918620    9.25926057582982   -1.99369244487390
C         0.30203780869277    7.04183037594419    3.04415208099216
C        -0.91902500769492    2.12917005699701    6.64190195760029
H        -0.72106178040590    2.81260557117482    7.45341201964206
C         1.33904102160916    6.75718975270892    1.97982826946343
C        -0.31436506899965    3.81426422456633    4.71902493523544
C        -1.00267896447730    1.63720903149490    4.27744182032327
C        -0.70986381085272    2.39085507281736    3.02711746196972
C        -1.43069997098436    0.34788672803082    4.50689039968023
H        -1.62682365561769   -0.32791131317102    3.68844678778612
C        -1.72893938199795    7.42052914709944    4.80442148243607
H        -2.55816401515404    7.54718556031705    5.48197852271994
C        -1.87101720504957    6.62532086552327    3.67954077771461
H        -2.80171921361646    6.11305142112351    3.46231658072635
C        -1.60255418502301   -0.04647626917893    5.83091203920578
H        -1.93784314237111   -1.05065401464128    6.04604140966952
C         2.17779778286407    2.44325324591142   -2.27904882700128
H         2.84202279179597    1.83840293779071   -2.90546040939231
H         1.60572044783111    3.12183082990024   -2.91768255029775
C        -0.74886300738398    2.51763580931449    5.33198224287484
C         0.19860891163716    2.24942882145981   -0.91440598562336
H        -0.49591569393612    1.52968671485318   -0.47491341859344
H        -0.34191149834609    2.87275523991378   -1.63564651977620
C         2.19351939124823    4.16597225789570   -0.61851903524002
H         1.71339502768024    4.85521066211922   -1.32334415980393
H         2.84599586762152    4.75566031179839    0.03855929885895

