35
CSD_code = IJIDIQ | q = 0 | S = 0 | Stoichiometry = C12H14Cl2N4O2Pd | MND = 4
H         7.33952380883192    3.09913754573157   15.21076892367491
H        10.79410760817937    0.86979264536512   13.14894130516203
Pd        8.92149379687542    2.69174817296504   13.12215364218034
O         6.88862457400255    5.95986688679824   11.89052769813390
O        11.25297410388644    1.26377875133266   12.34967491638767
N         7.21155021554968    3.17235998776918   14.19847919127020
N         8.49175537456022    4.32805898565473   12.10717132758723
N         9.10028147557510    4.75135655816438   11.02582683088793
N        10.48041989558202    2.34663935231297   11.98343444017907
C         5.93904024492707    1.13345386605440   14.65675108716096
C         5.17446292159209    0.06455389332209   14.22705835447111
C         4.83616402740936   -0.03869816064401   12.88713339475741
C         5.26349072336115    0.91584575606605   11.97477646171592
C         6.03965713576125    1.97767894429749   12.40207403498827
C         6.38630463054392    2.09218908960649   13.75160103897892
C         6.77114483717555    4.52017096068614   13.81185232139763
C         7.37696004184204    5.02401470441502   12.48292745776108
C        10.13665856947629    4.21261429722038   10.49357502747154
C        10.63698013966672    4.91493005516340    9.26535030838363
C        10.86343657572645    3.02943331884976   10.95431389308925
C        12.09262657747470    2.63135182059134   10.19640895208328
Cl        3.87443312389060   -1.36434088989992   12.34701173271166
Cl        9.30869398011511    0.84295330708513   14.45625727348512
H         6.21248137975291    1.20594987965024   15.70008252716999
H         4.84295244047680   -0.68351836946220   14.92897435202738
H         4.99615893213055    0.82464368812180   10.93419037334008
H         6.36106211513771    2.72508633181539   11.68280773283291
H         7.08335569087951    5.23730396214007   14.57835338290382
H         5.67868959943904    4.56976752917620   13.72601305097609
H        10.61678065194782    4.25500059658972    8.40038577162506
H        11.65574175646499    5.27118130995008    9.40248167700059
H         9.98982346933479    5.76517556310281    9.07369490216126
H        12.83341925986103    3.42705004012356   10.23966929198759
H        12.51608637007782    1.72926101892275   10.62890605189559
H        11.85076395250106    2.44780860096007    9.15217127215443

