35
CSD_code = IJIDOW | q = 0 | S = 0 | Stoichiometry = C12H14BrClN4O2Pd | MND = 4
H        -0.74149537005113    2.24385205229125    6.19479446373322
H        -2.33107224148790    3.50108271853984    4.80828859800204
H        -3.47517641870778    0.31612952833574    9.99920986486143
H        -2.97623209618816    6.27201480945828    8.00029904186500
H         0.03070285506198    3.28919846233052    9.64033252014420
H        -1.39453747573328    5.02588698028284    9.40805740803231
N        -0.07701112704736    2.80398747582882    8.74636992416335
N         0.19953723526243    0.27965174232949    7.79565142742612
N         0.19829948423992   -0.92365361087348    7.27597023005618
N        -2.24411265589350   -0.60203281808271    8.86661581954705
O         2.14314058794369    0.79650812614023    6.68517746147546
O        -3.40731681243572   -0.60382513275028    9.60840185472855
Cl       -2.79358759717764    2.16392011372456   10.21092835400645
Pd       -1.23926295711998    1.08238860163451    8.88130959907619
Br       -3.96408718527326    5.92336087503292    5.23487661712858
C        -1.58787985290568    4.69337460433656    8.39787953880027
C        -2.48444092016363    5.39389363365931    7.61269962903584
C        -2.74285985424039    4.95722863514060    6.32478401486348
C        -2.12030234944799    3.82880748179528    5.81424282415032
C        -1.23342918687114    3.12050972451807    6.60411907767630
C        -0.96479357877933    3.54703682851199    7.90907744593576
C         1.22513268368170    2.45303505194618    8.16392656265283
C         1.24869949520505    1.08402922211172    7.44795508483091
C        -0.70817309140560   -1.81424903390805    7.45557346685310
C        -0.44756618744167   -3.11336402835629    6.75133947800349
C        -1.92595837078419   -1.69756500692321    8.25795676943237
C        -2.80854614236083   -2.90331420256974    8.35920157761552
H         1.97356087636374    2.39200972849136    8.96079035763352
H         1.55624951225231    3.21457942025319    7.44692195427461
H        -1.25732643278935   -3.35981427260232    6.06819963445430
H        -0.33623523391900   -3.92992420815966    7.46162945916038
H         0.47387972103780   -3.01395768033066    6.18627802357745
H        -2.24661892869425   -3.75329122227100    8.73781032769050
H        -3.63875333170615   -2.69688601408593    9.02816268672217
H        -3.20062705242081   -3.16390858577881    7.37866890239051

