35
CSD_code = IJIFAK | q = 0 | S = 0 | Stoichiometry = C12H14ClIN4O2Pd | MND = 4
Cl        0.96262526130004    1.26283287742347    3.06016078831059
Pd       -0.59438077613028    2.35788845636434    4.37567047354685
H        -1.88012993496359    0.16196185051093    3.61038689767103
H         1.64533322177230    3.11216869452565    3.25714793605099
O        -3.96802796538525    2.65661697521199    6.58108875992344
O         1.57799857499946    4.03518724830025    3.64057828256580
N        -1.76686174541330    0.64333068669857    4.50588180282986
N        -2.03100440849323    3.16979061577221    5.45718771048864
N        -2.02413667891640    4.37359390766417    5.97597006441036
N         0.41799704024636    4.03780270969381    4.38761993283967
I         2.21872124348847   -2.64872505379456    8.12690757023988
C        -0.59544666122339    0.31598575225359    6.63806686014170
C         0.28276495413674   -0.40755210084694    7.42461428420084
C         0.87380798523540   -1.55419224793563    6.92058567276195
C         0.59114782588897   -1.99281690997532    5.63995184836389
C        -0.29646606920456   -1.27833866800475    4.85616512007544
C        -0.88791950503896   -0.11434118452931    5.34017661623857
C        -3.06646221371388    1.00138200021046    5.09063962663882
C        -3.08026529263475    2.36823479207505    5.81078588039145
C        -1.11203664590734    5.25870364347834    5.79766871357413
C        -1.36673268877364    6.56001890944635    6.49999040717996
C         0.10630343411014    5.13477889603476    4.99710130950666
C         0.99344358697353    6.33706337199265    4.89377916964038
H         1.05469216019450   -2.88474823536103    5.24897875328323
H        -1.06208693563918    1.20798968654178    7.04540346627200
H         1.33648066482471    6.63826301535620    5.88101186716318
H         1.85441768919328    6.10793560735985    4.27216348524839
H         0.44857805593397    7.16957318495408    4.45411342654039
H        -0.50670637243483   -1.61526812441403    3.85070468256689
H        -3.40222911856046    0.23962175276308    5.80522152237066
H        -3.81500833011256    1.07033874754842    4.29443080571941
H         0.50747889285362   -0.07048394333138    8.42442987587364
H        -0.57161919389765    6.78608701735747    7.20753907952831
H        -2.30477830481141    6.47618889146205    7.03995207789537
H        -1.44069174990094    7.38232717719917    5.79152522994500

