74
CSD_code = IJIHOY | q = 0 | S = 0 | Stoichiometry = C24H44Cl2Si3Zr | MND = 12
Zr        4.77901428291487    3.72326278622090    8.04792875407009
Cl        6.43550493530492    4.49593958574234    6.56603177125606
Cl        6.11274966850051    4.45627316445473    9.85617997019593
Si        7.75099035665775    1.57068986121232    7.04125008421320
Si        3.57052339889289    1.16671599261441   10.90005628005298
Si        4.40471504515974    1.13643080012772    5.10214818220855
C         5.94357684417257    1.62146262180661    7.60214109024192
C         5.65978177865795    1.61555153678335    8.98101384963899
C         4.25525436412393    1.57315124138474    9.19850777240614
C         3.66569654907610    1.52920432206524    7.90821870199552
C         4.67949502000332    1.57229651570105    6.91086654941701
C         3.98050765707072    6.04541415598944    7.96953421270064
C         3.27854514531353    5.43549199360234    9.04723151067573
C         2.42341731079312    4.43737937663703    8.50184955264056
C         2.58193024339149    4.44987216208143    7.08228707439371
C         3.53199061385548    5.45642758928808    6.75452563317196
C         4.94261423737640    7.19311284732183    8.08965957545941
C         3.26512594342968    5.96130803875650   10.45609135906523
C         1.31792741179226    3.74339191372222    9.24743246297930
C         1.66988054827585    3.78112597951329    6.09155335570375
C         3.81575899949928    5.99881896382578    5.38097480103453
C         8.17612745185957    2.12595130063646    5.26133805589696
C         8.77471510403584    2.59759763886460    8.29094513325200
C         8.30301725302553   -0.25400664908927    7.24361080625731
C         3.66043819791029    2.68965160012083   12.05846837076799
C         4.69416043093041   -0.19418331878464   11.63881943995909
C         1.80716255706486    0.43355239387783   10.79865882927513
C         5.55443971657386   -0.29073640473843    4.56191925529230
C         2.63933234800536    0.41880833116474    4.88393335475419
C         4.64503895224752    2.65347011313947    3.95262595552593
H         6.40137034002459    1.57101183671422    9.76847273677202
H         2.61953752325710    1.33249495473863    7.71293984014993
H         4.40965748368392    8.14703495839214    8.06767910367100
H         5.65694543923293    7.18378026624517    7.26571963338238
H         5.49501555920772    7.13426456983407    9.02846013364748
H         2.90244505666969    6.99136832242449   10.45393132945486
H         4.26240960662170    5.96360174778815   10.89771604443020
H         2.60454711662926    5.37328967676040   11.08785420273690
H         0.44377934152572    4.39745179655111    9.30628648236312
H         1.62059562628231    3.49460802357445   10.26178382061080
H         1.00901393292639    2.82817619569387    8.74621881550562
H         0.91253643351212    4.49136310919370    5.74982387249305
H         1.14661150268253    2.93826978401302    6.53821826820477
H         2.21759661376925    3.42971964028616    5.21920474761960
H         3.38658158658242    6.99914357691057    5.29075404598007
H         3.37088660154481    5.37101056299580    4.61303829295432
H         4.88624080867094    6.07940004778330    5.19044015100354
H         8.81118630967832    1.39189563629964    4.77525092827675
H         8.71447321855498    3.06721284520853    5.28207454179572
H         7.29933273594841    2.27766112457147    4.64467277192151
H         9.79158909485266    2.73482016488040    7.93536484671661
H         8.83539194524483    2.10796925591066    9.25890767094957
H         8.34747734818361    3.58534601893155    8.44775900222157
H         9.37135198934202   -0.34247121990710    7.07818505045769
H         7.80671451084679   -0.91155332312513    6.53916486904889
H         8.09325228495229   -0.62641783160544    8.24089335986190
H         4.30334916000914    3.45924968108146   11.63406217200509
H         4.08318016835515    2.40973181274621   13.01850484701474
H         2.68862914638386    3.13015732469359   12.26090616944660
H         5.68596751063099    0.18890936918880   11.85758780542088
H         4.80934122174113   -1.03251576556255   10.95853441811961
H         4.28163126851293   -0.57789633904010   12.56695830486078
H         1.50516760201915    0.07399008635234   11.77684782869169
H         1.77874005309905   -0.41258896990290   10.11954275070164
H         1.05799128483214    1.14509751738866   10.47152315750909
H         5.28921102517687   -0.62858183809554    3.56445831694017
H         5.46008411696104   -1.14117323248210    5.23006210856183
H         6.59693184993026    0.00134034098571    4.54554809768739
H         2.49526578396280    0.11161516955543    3.85288713687896
H         1.84550840042182    1.11631241131787    5.12405584218966
H         2.50278675406265   -0.46158703529007    5.50408681908273
H         5.32163403868547    2.41507686682345    3.13773778393104
H         5.06894012312779    3.49737282754413    4.49460366326862
H         3.71336811570982    2.97601157747168    3.49627647099849

