84
CSD_code = IJIMIX | q = 0 | S = 0 | Stoichiometry = C35H40N3O4PPd | MND = 4
Pd        9.77472958320214   11.20660539961305   26.43328837327413
P        10.71591903779281    9.76755994152673   27.87301001256294
O        11.86536373927756   11.82817048895479   25.78609628189946
O        13.25572741892640   10.93279971535403   24.43610138172718
O        11.24222436762306   10.21435688862989   24.53797842234187
O         9.47160335225504    5.31335632578148   27.08543184031490
N         8.75325226698705   12.42110917878683   25.03882553249477
N        12.14410406238653   10.98020047436746   24.90332236371436
N         7.50411951133727    6.23006736251158   27.65154467602064
C         7.90701174371114   11.03553875923124   27.10306666124596
C         7.45701046077720   10.88913070084955   28.45035291066632
C         8.34135235400098   11.09875196322515   29.52296600342960
C         7.92753229376128   10.96775497844624   30.82328588728446
C         6.60145153077132   10.62607977260141   31.09090586698616
C         5.70405108908083   10.47599381736802   30.06200144925227
C         6.09127802232025   10.62211874640711   28.72037307102839
C         5.15863471363110   10.55828228965276   27.62145878673753
C         3.81613557980451   10.18916327256055   27.79447000360310
C         2.92708704010576   10.19914007583873   26.74884963905319
C         3.35126787557798   10.58297430394859   25.47794604620518
C         4.66154537694056   10.92962293044085   25.26993539128118
C         5.59658362981365   10.91539218140030   26.32038263758039
C         6.98711787567491   11.17967309904797   26.10268319377850
C         7.54654421872489   11.59820087709753   24.75887037282734
C         7.89986916304579   10.33653833349519   23.96168954715368
C         8.38057022525591   13.69342779385419   25.66458947446749
C         9.49983142695448   12.72091125053793   23.81784057665569
C         9.75240668303201    8.29677814538695   28.47007178337065
C         9.38544086475226    7.70754347612205   27.07803542215179
C        10.70291970002133    7.68909585546157   26.27961838585399
C        11.75221895983670    8.39672070456505   27.16321729566686
C        11.95320799482994    7.51354980012971   28.36834339344425
C        10.82413489785159    7.43053099480864   29.07819556127084
C        10.52039577078604    6.54196126095906   30.23746372697104
C        13.23366265281396    6.78077745345853   28.55645592137282
C         8.79852497310943    6.31388028327606   27.25714482159940
C         6.60023416419261    7.31975474284785   27.91949361056651
C         6.94684222063954    4.92312134048225   27.92584881305751
C        11.71932213865627   10.42313000884873   29.23820513023277
C        12.66683572798723   11.38774195743149   28.90281366873186
C        13.48116800100044   11.92860680991931   29.88124551480272
C        13.34537395268447   11.52121481510852   31.19852055777987
C        12.38483418574087   10.58218876002933   31.53854640830571
C        11.56887245863543   10.03482752860246   30.56504742291149
H         9.35334141519655   11.42419872342169   29.29778335196059
H         8.61813282029878   11.14013880945596   31.63550125409546
H         6.27229010514899   10.51036574427266   32.11322760399708
H         4.67419957131628   10.26615641220741   30.30419027355196
H         3.46576403955544    9.88225457260655   28.76712884022058
H         1.89881505895288    9.91074891636201   26.90892593236967
H         2.64993669873097   10.59624164280196   24.65673571270611
H         4.97928057024775   11.19974350230935   24.27500006433553
H         6.82867716793329   12.21191400879235   24.19096208271665
H         8.79572987317779    9.87101632712110   24.39280859737161
H         8.07955534500196   10.55234632804599   22.91143015756479
H         7.07522277648258    9.62922889254722   24.02642298182009
H         7.85523572334295   14.33942711610055   24.94654357106955
H         9.28401546546741   14.20699992309709   26.00360931291643
H         7.72841658445958   13.52691045463075   26.52322227119420
H         8.85844951104253   13.22583517065390   23.08274474101185
H         9.89946878369043   11.80895195981374   23.37587766523920
H        10.33478546193994   13.38092879868027   24.06078959188098
H         8.88399534553312    8.47141662399173   29.10283911694029
H         8.67029685578202    8.37406199499260   26.58105293242527
H        11.00872906918672    6.65884951493542   26.08870751916637
H        10.59364601095968    8.20905341903004   25.32671098994080
H        12.66347897479317    8.66236255808994   26.62921535549260
H        11.41070103059596    6.35516324297741   30.83346904404010
H        10.14850134557903    5.58329409778226   29.87321159686980
H         9.75424552068172    6.98166015958796   30.87493362628137
H        14.07528030329917    7.46783858090662   28.47338222412161
H        13.34186249677248    6.02178638670409   27.78161799504017
H        13.26940023066612    6.28998898784436   29.52498572903481
H         6.93566587135034    8.24968853483350   27.47337064347566
H         6.48325923406854    7.47400211179337   28.99761231017895
H         5.61868002116072    7.07884266468624   27.50468655962672
H         6.08116004710153    4.73856364663446   27.28635191110396
H         6.63705856551625    4.85539814474433   28.97144507252343
H         7.71177439183440    4.17684650643152   27.72324475458626
H        12.75222603418514   11.71645612192958   27.87462694708749
H        14.22018096419578   12.67049304431098   29.61716849330496
H        13.98167747303570   11.94248006902868   31.96291056682049
H        12.27054581084132   10.27588710665038   32.56842128274604
H        10.81350412560172    9.31281431933354   30.83329748134905

