42
CSD_code = IJISOL | q = 0 | S = 0 | Stoichiometry = C13H20N2O6Pt | MND = 4
C         9.30724936659697    9.70834783673798    1.56739187488032
H        10.30567045620165    9.90962753581626    1.96477361778503
H         9.37780770132123    9.56821392411668    0.47996288248125
C         8.75030981414662    8.41450861988841    2.17575370641985
H         9.40496265104036    7.58555706730781    1.88920625378185
C         8.64292654889743    8.41781974565705    3.70595818225829
H         8.28453168639373    7.42636934000816    4.01097238658719
H         9.62598627550002    8.59567255599038    4.15047564894507
C         6.39952896572670    9.34624237195514    3.57229403980939
H         5.78017722364886   10.17826675776551    3.91764668786310
H         5.92633045814894    8.40253490533551    3.87707254410691
C         6.47923672198406    9.35803101549666    2.03961423042048
H         5.46891625448409    9.23179443024701    1.63775442218273
C         7.06551732630334   10.64180623313433    1.43744715461547
H         7.01699467521804   10.54081701545912    0.34553386263222
H         6.46356159939679   11.50245345679790    1.74146767363082
C         7.34668779331837    8.16562696207399    1.58826156382800
C         9.54914072162366   13.97353027947445    4.26301206062411
C         8.49916967689694   13.84030215593727    5.37999456216668
C         8.90564746027031   12.71372563334813    6.34563474739819
C         7.05449358040921   13.68303070392117    4.83727414007484
H         6.97933405919775   13.68733054099024    3.74605818395699
H         6.51777224109703   12.82069557541140    5.24234017637011
C         6.68078497093990   15.01981929570304    5.50050379934471
H         5.90740954253652   14.93669280975312    6.26182574713807
H         6.39888080985802   15.79743465789207    4.79311556123605
C         8.10673383629280   15.15970040359370    6.05409717736414
H         8.67242983779940   16.00891258161630    5.67753790471511
H         8.19066537733133   15.11577540630192    7.13767623370176
N         8.44803062809630   10.85738437102992    1.87167379802377
H         8.82807942609454   11.68581674919269    1.40711363701208
N         7.72764617451923    9.46199207197613    4.17919217135814
H         7.64783862014158    9.39296724829853    5.19671631146157
O         9.62341544048210   12.97613641102666    3.43880029954645
O         8.86922510238419   11.51394189901399    5.85680429512287
O        10.21548573512568   14.97770810267452    4.14053206625684
O         9.18068534257108   12.94377902045423    7.50271613178609
O         7.34558206187334    8.13921989406164    0.18771348136494
H         7.85546936763778    7.37726597249363   -0.11467127308585
O         6.87920233231591    6.94322378506461    2.08814923790265
H         6.02560520185800    6.74206779312858    1.68459696036829
Pt        8.62207693431881   11.28595686385552    3.87320585656256

