48
CSD_code = IJIVUT | q = 0 | S = 0 | Stoichiometry = C19H16N6NiO6 | MND = 6
Ni        5.37577046283043    3.74695209384849    2.17845670283068
C         4.48417647379532    5.99302373621411    0.87720453288331
C         3.28533857287334    5.07463057993318    1.12188870493568
C         1.95746202867353    5.27920046434269    0.77803264737153
H         1.68403272889198    6.18446963270666    0.25908976848801
C         1.02638636991547    4.30688845092700    1.11700537374827
H        -0.01486134373994    4.44049767264829    0.86191036215531
C         1.43914343265453    3.16216543803569    1.78506362398085
H         0.75282918615999    2.37997979684336    2.06921772526842
C         2.78382628468280    3.02361062445834    2.09489919354675
C         3.48158910201189    1.86077665178068    2.80293174171469
C         8.14715068851189    4.35317325602437    2.16812140382655
H         7.79330792411885    5.16097522158775    1.54029399748214
C         9.48780351876209    4.22380159136048    2.47316679321385
H        10.21442760578010    4.92046261776314    2.08842519768133
C         9.89783079396735    3.17330204745398    3.29319308134559
C         8.92365350319036    2.29658677162574    3.76800627458609
H         9.20785426719730    1.47387548632097    4.40349776489708
C         7.60465717535909    2.50081314929329    3.41282879564395
H         6.82401815273755    1.83542111838868    3.75899922561158
C        11.29067945839458    2.99284499014874    3.64637506718019
C        13.03311202304364    2.16999165091307    4.51013916327163
C        13.96287095007727    1.33700451062957    5.24478997421107
C        15.32266936207902    1.63266097452351    5.34194561694353
H        15.75036925480960    2.50605545965370    4.87376317395982
C        16.12939320703831    0.77136699083629    6.06827873136805
H        17.18960716199674    0.96077967028616    6.17153096893316
C        14.39272198416823   -0.59381581195106    6.58247820266259
H        14.07268462637014   -1.49155924411140    7.09386022282349
C        13.48995506669374    0.19106252368380    5.88573432538718
H        12.44350311411104   -0.05826271559302    5.82615250707856
N         3.65703749998798    3.96905268240499    1.76046745546367
N         7.21480694612975    3.51034654884525    2.62680817335509
N        11.73235973039475    1.98038165990900    4.42754731206389
N        12.26361129019981    3.79722154901036    3.24334918018106
N        13.35724366104922    3.27593831287493    3.79013425459327
N        15.68191974411639   -0.31412260184754    6.67341179753415
O         5.57025474056769    5.48744504923148    1.33751613701187
O         4.37362776159458    7.06924935415672    0.32805058601778
O         4.74414655134548    2.06243393124349    2.91433462970287
O         2.87891639393715    0.87773743155434    3.18042869581822
O         5.57663812070209    2.46350867217430    0.09923680063802
O         4.91932855702728    5.05595176664950    4.19979959964414
H         5.52208061667465    1.57368683245463    0.46523323550345
H         5.46214563054664    4.73918042209190    4.92653204618843
H         6.45354519698565    2.58027263421144   -0.27554744881040
H        14.25502884362331    3.70627936746475    3.63246819456050
H         5.26594557796795    5.90840098699040    3.91384848551853

