125
CSD_code = IJIYEG | q = 0 | S = 0 | Stoichiometry = C58H52FeN2O8S4 | MND = 6
Fe        0.00002388990680    7.70962251056073    7.99551013777049
S        -5.15280799772795    7.15434119655872   12.75435969668367
S         0.72210394706384    8.73451538351092   12.02977527313708
N         1.23495400579382    6.44321133953311    7.43208784529160
O         1.43359106653239    9.24206903065665    7.96871065939780
O         0.93767814248811    8.09054431677704    9.74507591102326
O        -5.82126602114066    5.86274860317914   10.68046107331076
O        -7.48294990490074    6.29185946522061    9.25758814859388
C         1.44608676019397    9.12606955739445    9.21815751050101
C         1.99117304335123   10.15793931591001   10.11073630533348
C         2.74259543863661   11.21142594940031    9.60543172763604
H         2.92573916847237   11.23584903175590    8.54201418632120
C         3.23287141487631   12.18590382915769   10.45064037351359
H         3.82123996570250   13.00353254370463   10.06271148501770
C         2.96203257730334   12.10273576565110   11.80948739340283
H         3.34566857352071   12.85666861120928   12.48202068167399
C         2.20557424939634   11.06677046822720   12.32305663749111
H         2.01933123164861   11.03398468577439   13.38410756665459
C         1.70073015225868   10.07713997301778   11.48251646643410
C         0.29296989998565    9.23930552740013   13.77743069834242
H         1.18910028650567    9.20144694543851   14.39270880497652
H        -0.10580245459998   10.25141786579649   13.74012556249569
C        -0.74551360336393    8.27544717577598   14.24434491103501
C        -0.40310570851042    7.03946575761218   14.79743081266557
C         1.03027185089103    6.63416800661897   14.95567856399810
H         1.10180281061131    5.60809492165364   15.30718883877953
H         1.53751850025095    7.27814888648019   15.67464646936020
H         1.54877705667393    6.71560749426047   14.00212988775595
C        -1.41990304512053    6.18262372794703   15.19145315814328
H        -1.15586758530325    5.22922013205125   15.62828774411798
C        -2.76246115944522    6.49285291305236   15.03489724045551
C        -3.81918530599224    5.52635259159646   15.47478479679553
H        -3.36834834415129    4.61795538641580   15.86564621822262
H        -4.46695336528016    5.26352033428283   14.64012733410505
H        -4.43965049142513    5.96473852883630   16.25704942028655
C        -3.09924317802896    7.71798406603498   14.45472429841534
C        -2.08668219564893    8.58360499974004   14.06889712097821
H        -2.34822116838094    9.52874123089592   13.61380741215201
C        -4.52298306944173    8.10519552897964   14.21911183280635
H        -4.59139923224509    9.16391170624483   13.97604908702719
H        -5.15283930532534    7.86220493775648   15.07429403618142
C        -6.69124608963941    7.91031674289778   12.42982236638610
C        -7.27016740163933    8.87127398280485   13.25964605076760
H        -6.78256773559082    9.17158679201255   14.17192524399309
C        -8.48064770953561    9.44761373424407   12.93457932191942
H        -8.90530588842608   10.18818820325548   13.59644765227270
C        -9.15530616431616    9.08714688546935   11.77512649838866
H       -10.09938385511551    9.54763037344686   11.52920725582976
C        -8.60807883321193    8.13036537197348   10.94845393382202
H        -9.11335461268426    7.82231075164361   10.04675253817190
C        -7.38831226848037    7.53355888836147   11.26405732243783
C        -6.81450144262647    6.50095021938343   10.40335501286311
C         1.70579615278459    6.54210796036572    6.18479277040498
H         1.27509349471595    7.33167434017841    5.58873556968999
C         2.66933221272128    5.69588104615396    5.67599566144946
H         3.02818176352466    5.82428512509130    4.66841808413430
C         3.18185964158326    4.69387953240734    6.48854690186956
H         3.94349737532587    4.02764441282177    6.11739254049494
C         2.69925482947785    4.59285044050373    7.78528463047247
H         3.06705666366035    3.83583339291135    8.46131308435837
C         1.73166005359273    5.48161236966251    8.21345104509678
H         1.33575214990856    5.45119411333925    9.21812402904283
H        -7.02983952907173    5.60564085180438    8.74418491511463
S         5.15281323612055    7.15426711314661    3.23657789574340
S        -0.72210703738631    8.73449843590109    3.96120953800370
N        -1.23490672038609    6.44321561292266    8.55893067180036
O        -1.43357276273061    9.24207966816722    8.02228957252777
O        -0.93760558545475    8.09055719589399    6.24593390384545
O         5.82128137631873    5.86260901665999    5.31044955686559
O         7.48292596742982    6.29174099549490    6.73336073232895
C        -1.44606830855816    9.12605878205981    6.77284358991006
C        -1.99114603546532   10.15792985294241    5.88026031347505
C        -2.74254760055464   11.21142219349368    6.38558109490297
H        -2.92565938024576   11.23584447516778    7.44900559470006
C        -3.23282812946737   12.18590697654942    5.54038611014761
H        -3.82119274673852   13.00353322192762    5.92832883706999
C        -2.96201288689369   12.10274053480865    4.18153415403274
H        -3.34567552941977   12.85666559812311    3.50900741191379
C        -2.20556179097106   11.06677676158465    3.66794826641032
H        -2.01935852015018   11.03398066713843    2.60688959336815
C        -1.70071440775340   10.07713618999154    4.50847702188969
C        -0.29298736459069    9.23927374164519    2.21354842467182
H        -1.18912042239941    9.20141427557141    1.59827381920831
H         0.10578544393516   10.25138634191939    2.25084310845831
C         0.74549938637048    8.27541743112422    1.74663139559838
C         0.40310054072572    7.03943744219200    1.19353631523818
C        -1.03027401433714    6.63412898815718    1.03528552094397
H        -1.10179651339933    5.60805918543454    0.68376273059534
H        -1.53752307689260    7.27811468127820    0.31632392874394
H        -1.54878063830088    6.71555433340407    1.98883517272234
C         1.41990280209116    6.18260558939746    0.79950303868976
H         1.15587055537738    5.22920909730742    0.36265071269316
C         2.76245943714371    6.49283811786122    0.95606153428599
C         3.81918979600642    5.52636015844102    0.51613888339142
H         3.36835931950727    4.61796947039736    0.12525546502647
H         4.46696727984423    5.26351044035224    1.35078265136119
H         4.43964533541769    5.96477452273717   -0.26611775445682
C         3.09923332460034    7.71796112925104    1.53625603281652
C         2.08666764548888    8.58357475836416    1.92208753508874
H         2.34820488054092    9.52870563134685    2.37719007882865
C         4.52297023708088    8.10518156047389    1.77187481672153
H         4.59136738305913    9.16388597644213    2.01499444046632
H         5.15282789479948    7.86224582033036    0.91667603217885
C         6.69120285417198    7.91030533561134    3.56119156071635
C         7.27010659124905    8.87131243425504    2.73141486035198
H         6.78251657433234    9.17164079263930    1.81913489479329
C         8.48056551940415    9.44767513918305    3.05651976882799
H         8.90519628636778   10.18831538399615    2.39470670788977
C         9.15521759912641    9.08718194633563    4.21596734569298
H        10.09926121397186    9.54770980636483    4.46193450538506
C         8.60801393338702    8.13034398720963    5.04258763446197
H         9.11328306643491    7.82227878997908    5.94428923563347
C         7.38828149063694    7.53349694432943    4.72693231842515
C         6.81451962230330    6.50079891348994    5.58756304562737
C        -1.70574764147400    6.54211697199580    9.80622534083593
H        -1.27504281604308    7.33167876934330   10.40228521397311
C        -2.66927865884111    5.69588935939475   10.31502954061518
H        -3.02813235557806    5.82430513182511   11.32260228767248
C        -3.18179997830322    4.69387741701743    9.50248748695334
H        -3.94345216853200    4.02765805296735    9.87363673935132
C        -2.69920875425059    4.59285446489301    8.20574470721738
H        -3.06702716489755    3.83584976178326    7.52971297743047
C        -1.73161955640587    5.48161745192534    7.77756970304796
H        -1.33571354158333    5.45118954690099    6.77289692200368
H         7.02980181160570    5.60554584028682    7.24678370334095

