37
CSD_code = IJOFEU | q = 0 | S = 0 | Stoichiometry = C16H16N2NiO2 | MND = 4
Ni       15.89689937725853    5.72219807733439    3.94652924433858
N        15.17999525781217    4.25327899533803    4.81997495669007
O        14.23273738071214    6.51632390933073    3.81008777726531
C        12.86142082384343    4.86526222264523    4.88528808194904
C        13.08307948630333    6.10442864216424    4.21106904861968
C        11.94293617862616    6.91794790812328    3.97946110751980
H        12.09647073465507    7.85736946490682    3.46986660665829
C        10.69657235653628    6.53211796596959    4.38343911970008
H         9.84990403442049    7.17659236890675    4.19075988744008
C        10.47852630976001    5.31135857119906    5.04787815018494
C        11.55976972229046    4.50413502551463    5.28530884308722
H        11.42668073558175    3.55844441317033    5.79378924166657
C         9.09227326397096    4.93372839870743    5.47579737849106
H         9.08045483070845    3.94384792301074    5.92479395102588
H         8.41544039609105    4.93726400941448    4.62223234566764
H         8.71198045762145    5.64916798442113    6.20472392686860
C        13.95528530005696    4.00279392315692    5.14944529461513
H        13.71864610478555    3.07071437247167    5.66760027199890
H        15.85882947166068    3.53475558297179    5.07852653675802
N        16.61380375160763    7.19111777512008    3.07308392585021
O        17.56106167609704    4.92807243445052    4.08297122134116
C        18.93237906107947    6.57913727775097    3.00777670477693
C        18.71071985975673    5.33996889080485    3.68199207827023
C        19.85086310421756    4.52644927415789    3.91359902458332
H        19.69732849395371    3.58702599755036    4.42319056364509
C        21.09722780495112    4.91228170390555    3.50962493486114
H        21.94389619547025    4.26780722314197    3.70230395389060
C        21.31527428231626    6.13304321260787    2.84519015360502
C        20.23403069719116    6.94026653339935    2.60775963365882
H        20.36712001982109    7.88595903814435    2.09928276862351
C        22.70152764882529    6.51067536235572    2.41727353546429
H        22.71334919321916    7.50056502561261    1.96829709174653
H        23.37836377592101    6.50711878634422    3.27083567533554
H        23.08181381516265    5.79524919075108    1.68833034913913
C        17.83851444363285    7.44160518172964    2.74361829879684
H        18.07515440936323    8.37368628048067    2.22546625037209
H        15.93496954471894    7.90964105293502    2.81453206549468

