73
CSD_code = IJOLEZ | q = 0 | S = 0 | Stoichiometry = C36H24Cl6FeN2O2P2 | MND = 4
Fe        1.86578350338467   12.62589882170374    7.52156716729816
N         0.30641572531930   12.36132571424726    7.25949242778488
O        -0.83688513383580   12.15502068507305    7.02614174217296
N         2.64693003760299   12.74552321387297    8.91664677727353
O         3.23486520051851   12.85724587068576    9.93868766933232
P         2.34425491171816   14.50339495303667    6.47170115839191
C         1.52882365644572   16.02511361482055    7.07644942643362
C         1.61629709913629   17.22019289900615    6.36409286143818
H         2.17668030027292   17.25421927751190    5.43995032524006
C         0.99198270248002   18.35739785371979    6.83574402082637
H         1.05556717435988   19.28583815364322    6.28996743331615
C         0.27471230498550   18.30028485735080    8.02419083360736
C         0.17632354815734   17.11764750157303    8.74168944645025
H        -0.38671079913394   17.08846026538233    9.66139135882615
C         0.80434696311948   15.98271947920249    8.26172317895640
H         0.73550232318982   15.04490257703427    8.80381360322016
Cl       -0.50620190604718   19.72212717018022    8.61095015876602
C         4.10130503278113   15.00241225052979    6.48593153072791
C         4.58647941146345   16.08885490173260    7.20533619325517
H         3.90466666389064   16.74066403398434    7.73180737474309
C         5.94656159359082   16.33833281681865    7.25828859284583
H         6.32449469341783   17.18057889376216    7.81653088287333
C         6.82685860631171   15.49468075098685    6.59833369444933
C         6.36049512525454   14.39460053732708    5.89074917222780
H         7.05571104501123   13.73529885533341    5.39455184080211
C         5.00329104290275   14.15100602557086    5.84826617421442
H         4.62288921686987   13.28281168308188    5.32338446030740
Cl        8.52342169520623   15.80190540797212    6.66976392753946
C         1.89907108553934   14.66562832919959    4.70176458521999
C         2.77854540036363   14.93875051715855    3.66147960342175
H         3.83024886014022   15.08794503059874    3.85680557131088
C         2.31203665424911   15.03599602610281    2.36251124070324
H         2.99394716767371   15.24736854497686    1.55354331750678
C         0.96145315238269   14.86699515803123    2.10203632453810
C         0.06930157072000   14.59671069345727    3.13100020489436
H        -0.98060135059037   14.47027525379620    2.91771841174250
C         0.54424780417552   14.49124950646288    4.42135706221074
H        -0.13936070512986   14.27542405141869    5.23237651527607
Cl        0.38263862808637   14.99109291032660    0.48241397748578
P         2.81264206780330   11.01849499987732    6.34148260483956
C         2.01224588374020    9.38260284187602    6.54896178374613
C         1.81086840573255    8.46763103407465    5.52033690365801
H         2.09371883300058    8.71327330929335    4.50625332262719
C         1.22789854491578    7.24168264620133    5.78418092246366
H         1.06444816133874    6.53197224184429    4.98806372611147
C         0.85032506865935    6.92626268762291    7.08081099597614
C         1.04152714623960    7.82944327348607    8.11708698729474
H         0.73562022425779    7.57480428235446    9.11969845012443
C         1.61805625173833    9.05377654201386    7.84358774413718
H         1.75922547301176    9.78226637978609    8.63533821283053
Cl        0.12729345359324    5.39433759453625    7.40640177413914
C         4.55401393905103   10.52030088812121    6.61100917612512
C         5.37736284337267   11.31307998900333    7.40255652231063
H         4.97899747539587   12.20754102090615    7.86056098241327
C         6.70140872236897   10.97091130809999    7.60680109733035
H         7.33860376703053   11.58991617061843    8.21861490273854
C         7.20263644342236    9.81970235922353    7.01912090568780
C         6.38989305298465    9.00887716740108    6.23725168951432
H         6.79236900722732    8.11179801381400    5.79316507222039
C         5.06978349335556    9.35987439051349    6.03638244466004
H         4.43470008523297    8.73023008700855    5.43011783775365
Cl        8.85424759034952    9.38449717625509    7.26281145607658
C         2.75669028111639   11.19472925554635    4.52058432922646
C         3.87931370473468   11.32645873113036    3.71044742702619
H         4.87031154846139   11.22617003161583    4.13105421226351
C         3.73907452491940   11.57179427418114    2.35627171114855
H         4.60940023094763   11.67479800555663    1.72711590641726
C         2.47140560799456   11.68273147571561    1.80715450788251
C         1.33971072696555   11.54997358461494    2.60058035438749
H         0.35858427232199   11.63363805296000    2.16053602655449
C         1.48877063312558   11.32112256738070    3.95234577111862
H         0.61531884365922   11.22973431276977    4.58490753943605
Cl        2.29744368584087   11.99747821795829    0.12095645212904

