39
CSD_code = IJOMOK | q = 0 | S = 0 | Stoichiometry = C13H19Br2N3OZn | MND = 5
Zn       -0.23331746150366   12.68712195692957    9.77982350626482
Br        1.65111849963496   11.35620662989924   10.35685267284724
Br       -2.40136312924053   12.67247659075488    8.70581866426578
O         1.34659205203220   13.00150734053537    5.67778732779181
N        -1.20063504102710   12.29531414688942   11.78002891106707
N        -0.49888356363522   14.59627113725388   10.72632352177649
N         0.93684902767302   14.19894987318156    8.26856590270778
C        -1.67348965427691   13.40559215843117   12.35028030193310
C        -2.34170431465065   13.36544120919936   13.57093021953136
H        -2.69057152689433   14.26957802177288   14.04288863127626
C        -2.53044343827984   12.13980344076551   14.18978044253199
H        -3.04529090353877   12.08418844584799   15.13713798854761
C        -2.04800577299044   10.99566030434952   13.57781226280424
H        -2.17762412234772   10.02289402890309   14.02311748935293
C        -1.37927352785468   11.12924048099711   12.36911603529779
H        -0.96581379800635   10.26903273260977   11.85993452440302
C        -1.40383960450670   14.65577769770686   11.61988090609639
C        -2.17641860196260   15.89177861917124   11.94959246498217
H        -1.59507551337829   16.52491255847671   12.62132851991957
H        -3.12501217799683   15.65306006031972   12.41944792613821
H        -2.37346299977313   16.45761699440351   11.04065360008505
C        -0.10202248373351   15.72403241784862    9.93861210338588
H         0.12090140480324   16.59041069016745   10.57284374696361
H        -0.91407883024240   16.00502169525273    9.25645731314179
C         1.15046058975285   15.34632106497766    9.15115835354639
H         1.49787398583851   16.22142490660382    8.58085382972732
H         1.92864451399794   15.07105475178375    9.86866444528818
C         2.24489323666862   13.71109572484556    7.80840595886631
H         2.82002509013540   13.35194594591636    8.66285656393824
H         2.79732184204434   14.53100379385395    7.32503074973318
C         2.07607530836634   12.57597756223336    6.80202918921789
H         3.05190335515156   12.24794610199227    6.44209382570023
H         1.56852157744808   11.72489931065069    7.28059762978185
C         0.07321659438021   13.44045118412288    6.08010780559974
H        -0.48707134469463   12.60453855841664    6.52078921136831
H        -0.44528515235044   13.77480991217331    5.18050441516861
C         0.16355380448420   14.59167004220967    7.08294118066160
H         0.64685684501838   15.45157949027544    6.59352887169226
H        -0.84922476454489   14.87179241827697    7.37482298659806

