51
CSD_code = IJOMUR | q = 0 | S = 0 | Stoichiometry = C24H21BrN2NiO2 | MND = 4
C        13.35233921160459    9.18886856736440   12.90852033682343
C        13.40466572758731    7.76805857705344   12.70746756737148
C         8.90539835855979   11.51447990612651   13.63050074988903
C        12.22189264185087    7.00080237958765   12.68074796640759
H        12.36637506976900    5.93483889091582   12.52060892169066
C        14.65035830521632    7.12991854694728   12.53150957457557
H        14.67970506376327    6.06033374179017   12.38209736059559
C        14.59296333933522    9.89170929845405   12.91448866201601
H        14.55297464940941   10.95913042881809   13.06410687782361
C         6.45497625317224   11.43125972868974   13.89267399192894
H         5.56728774203520   10.81843073527644   13.90765532390681
C        15.80418823864970    7.85854067258864   12.54992221515700
C         7.69492315189559    9.37970781825355   13.44571973512231
H         6.72307402775408    8.89385905124059   13.48742528859425
C         8.79611529036814   12.91699786100013   13.83270360703591
H         9.70935547554527   13.49118138171999   13.80924009282733
C         8.65660369509359    7.27187452865911   12.97898766445842
C         9.91368877188912    5.24494541730567   12.53316357345724
H        10.83955171550999    4.71779527863729   12.36742386905654
C        15.78253637759884    9.24898490998090   12.74157642976166
H        16.71223304307572    9.79802298373591   12.75043619602185
C         7.58997499293688   13.51307881789717   14.04820473757461
H         7.56574254137305   14.58272773266374   14.19371396408013
C         7.47695795984285    6.52823880971808   12.93367224802611
H         6.51524282484070    6.99442757641174   13.07602417549374
C         7.52007195990951    5.16881517600391   12.69581779654994
H         6.60066126981678    4.60471825932971   12.66192458089347
C         8.73364136558451    4.52873968293370   12.49699395482079
H         8.76007425064285    3.46650382921524   12.30909438843305
C         7.68336310237033   10.76789877595455   13.65868700340572
C         6.37897398772328   12.78298791299699   14.08768234114870
C         5.07622599624897   13.52683047913692   14.33198130664989
C         3.86554684715146   12.59051774042360   14.37424879519641
H         3.96480529703179   11.85987358505149   15.17373845947647
H         3.73915134185348   12.07074235225046   13.42738798371224
H         2.96459653904624   13.17143717557026   14.56013736970377
C         4.86122188023568   14.53904726219830   13.19795678526978
H         4.81626797382882   14.02561756678417   12.23974324991885
H         5.66750874014085   15.26595407405792   13.15643840857305
H         3.92644196219119   15.07534929324105   13.34676802541037
C         5.15852574324858   14.26119582415846   15.67746998690957
H         5.96294257953695   14.99102911780886   15.68500141047418
H         5.33486029305592   13.55142544682602   16.48294372313199
H         4.22509195042641   14.78369239147854   15.87571157012863
N         8.75774073140950    8.64858105830266   13.20345554329824
N        11.00815839642275    7.46451830940084   12.82880455157290
O        12.26944284546200    9.83330771484323   13.07933575493908
O        10.05290096174869   10.99061436818392   13.43938435407499
C         9.89391389684272    6.61842792781317   12.77331204777090
Ni       10.52045844586362    9.23859056567626   13.13678143807184
Br       17.48328717353230    6.98587046952461   12.31140804077079

