43
CSD_code = IJONAX | q = 1 | S = 0 | Stoichiometry = C16H20BrN2RuS3(1+) | MND = 6
Ru        9.31694956616371    1.28864666313756    4.07749375688949
Br       10.79044406644148    2.61350739005932    5.57154053705898
S         8.06168188092308    0.04509194384918    2.51830196075237
S        10.39816701922895    2.31901276737712    2.25459058322084
S        10.97396891681657   -0.38442272294855    3.93277451686686
N         8.39491703641274    0.55492113026666    5.70125782481397
N         7.86503344938958    2.65633658995284    4.30084120343003
C         8.83961754549916   -0.44486636499107    6.45719987494884
H         9.77211948523463   -0.90653771676335    6.15354395586349
C         8.18708403836956   -0.87511719318272    7.59652955386157
H         8.59481674633759   -1.68595490104505    8.17704101170216
C         7.01414420709253   -0.23606390627098    7.97520765223038
H         6.47456388433965   -0.54790398064874    8.85483817966312
C         6.56703543679330    0.82882644425216    7.21619685475580
H         5.67891034877530    1.36416445614157    7.50611232156488
C         7.28499872143979    1.21847347165835    6.08633200265765
C         6.97486999908549    2.39869509999496    5.28200634861567
C         5.89950553915870    3.25278232662262    5.52269453050412
H         5.18939828786789    3.02536557832453    6.29963421569640
C         5.75697051304388    4.40085485289295    4.76674298078252
H         4.93432143838983    5.07498539728242    4.94268548064348
C         6.70667849682170    4.67614805885408    3.79208822442425
H         6.65484591631636    5.57340922358527    3.19795968192282
C         7.73718249410532    3.77691717012952    3.59524443199810
H         8.50096507125766    3.97380346340038    2.85192130543094
C         8.26745465822261    1.04396145279512    0.99178538047128
H         7.91016395244880    0.43324224814861    0.16169725790764
H         7.58153297230540    1.88036897711616    1.13685527107324
C         9.67639709509108    1.54006311213769    0.74405378993917
H         9.66337368802837    2.31123837643901   -0.02700997782262
H        10.34590465046787    0.74333222236514    0.42421001085318
C        12.06911345668563    1.58605916113944    2.30833944288042
H        12.57516427237129    1.85188931790505    1.38002543366539
H        12.54052716673397    2.11266386597216    3.14215949469734
C        12.08363411876236    0.09170247479737    2.54151671912708
H        13.08509990085814   -0.22654195277803    2.83274898718113
H        11.77575268098776   -0.47223463559999    1.66166443989138
C        10.06023573839347   -1.79635433021912    3.20194451389687
H        10.80040759987265   -2.51728768395465    2.85297801799827
H         9.51926161215573   -2.22648612986930    4.04629830441195
C         9.10040768916471   -1.42345100540397    2.09340010715169
H         8.40162885558767   -2.24164324541820    1.91608891363871
H         9.61704978655960   -1.19859746750140    1.16206490273880

