63
CSD_code = IJOQON | q = 0 | S = 0 | Stoichiometry = C24H30N4NiO2S2 | MND = 4
Ni        4.35267363579352   10.11780198191368    7.96261854730845
O         3.54385812531439   11.52997021204716    7.01297563232248
C         3.84822331775850   12.30129576259892    6.07179017662117
C         2.88284057226527   13.37400441996486    5.72383201252552
C         1.75383222487733   13.55037532839628    6.52033385124588
H         1.61581177284000   12.90631611018649    7.37582780720686
C         0.83716481178065   14.53814090233352    6.21616107203954
H        -0.03703363108903   14.67304098111730    6.83637165992382
C         1.03969543060966   15.35610199553268    5.11594880327826
H         0.32209216560185   16.12766951857262    4.87713516658365
C         2.16308323406838   15.18552208824114    4.32187413482656
H         2.31892238299065   15.82507877519684    3.46511501458530
C         3.08385882164739   14.19944780167155    4.62147024745925
H         3.96160099074823   14.05405067383166    4.01278371854777
N         4.93925356548797   12.27131922572240    5.31846156874775
C         5.94910794648154   11.43778550860267    5.50501577964420
S         6.15842223842992   10.32122434830845    6.80488853820759
N         6.92915818769798   11.49107019950997    4.58843253689191
C         8.11560881818778   10.67238255907327    4.68998809634996
H         8.52249609691828   10.54249951357702    3.68419364115580
H         7.82289208750436    9.69258252178903    5.07747927047729
C         9.17815453291613   11.27164881118398    5.60875239242999
H        10.01975974820937   10.58903634290373    5.68569595961915
H         8.76457184111071   11.42489432269257    6.60111194638397
H         9.53546325746762   12.22280491292517    5.22329476795187
C         6.82913690813521   12.45546927763721    3.50924941035292
H         5.79928776912641   12.44496897539790    3.14454151151609
H         7.49338662444782   12.13136830806492    2.70553233629464
C         7.18888982283101   13.87182583353941    3.95070173343834
H         7.06273693952928   14.55935352107661    3.11830929108377
H         8.21918539916691   13.92480042827817    4.29184864627565
H         6.53389123298540   14.17626319536887    4.76179140606881
O         2.72796837909881    9.94494805227354    8.90012085594371
C         2.26929979799910    9.23577633650901    9.82770499110292
C         0.83224904876187    9.39304437731188   10.16545711038032
C         0.25896300326604    8.70479303755546   11.23063837225694
H         0.87599158351396    8.04603494045894   11.82000012390117
C        -1.08240723585253    8.87292503463558   11.51771723774112
H        -1.52688502274705    8.33848550706310   12.34486073317528
C        -1.85930964163153    9.72539892416156   10.74876306590333
H        -2.90737186654419    9.85408603828178   10.97742775998308
C        -1.29264599932067   10.41177693355395    9.68651795438201
H        -1.89892538050642   11.07432085470700    9.08608314564287
C         0.04746998195899   10.24731002940789    9.39432039754465
H         0.50577505491920   10.76858146325049    8.56732876615132
N         2.92057464958910    8.35297233618619   10.57266085444011
C         4.18944353941754    8.02311311443819   10.39691078135245
S         5.23890989210415    8.53682408238605    9.12670457350479
N         4.70347994362845    7.17406065505273   11.30169822306138
C         6.06202611107414    6.68994979728554   11.20919721800173
H         6.69411190689461    7.50978710582271   10.85683246027297
H         6.38715841993998    6.40533887376800   12.21283233073451
C         6.21052877633452    5.50481678587028   10.25744187428235
H         7.25689519007663    5.22045190588565   10.19077008791110
H         5.86283907981514    5.78087701069980    9.26637882434682
H         5.63888633972887    4.64952648477119   10.60763466864230
C         3.84403490414677    6.66438983598471   12.35332123811428
H         3.24252020094235    7.49631956802597   12.72707909741477
H         4.48097832969930    6.29634871756800   13.16019347008786
C         2.91536436194829    5.55446494768850   11.86743204394355
H         2.26574006073244    5.23698241711983   12.67896265416975
H         3.48217101855315    4.69508933260512   11.51991979829499
H         2.30323870052111    5.92539114234674   11.05056260998078

