89
CSD_code = IJORAC | q = 0 | S = 0 | Stoichiometry = C34H40N4NiO4P2Se4 | MND = 6
Se        4.27034988972983   15.38015649975028    4.13204531222266
Se        5.42553603644456   18.17947610375225    6.25028970153307
Ni        3.10435611584841   17.54962376866355    5.80407158917389
P         5.89801207367735   16.48360447503820    4.96009821756111
O         6.21963259995408   19.43005065007742    0.74191143877280
O         6.46520189473517   13.59138842900321    9.18547562721333
N         3.11855876811296   16.40400814994732    7.28699611179247
N         3.30457627025135   15.68861763511894    9.35570126979486
C         2.78074607045911   15.07777909717651    7.31696886790858
H         2.48210954826923   14.54939088169760    6.42919428663426
C         2.89496583748521   14.62667454976432    8.59440193000362
H         2.71540160783597   13.65385910196422    8.99802712195950
C         3.55003730209145   15.73281933117140   10.72465942876002
H         3.84540366196706   16.71459842969154   11.06825647630457
C         3.44234969034584   14.70473618863788   11.54964678370080
H         3.15022580043133   13.72257013421003   11.22428310187073
H         3.64868055765336   14.82462713295660   12.59684638652073
C         3.43053982605971   16.74132620781109    8.52309653798650
H         3.74654504119098   17.72246310275598    8.83409384219727
C         6.99190894976549   17.10852219843703    3.60073062910531
H         7.84843878631494   17.61563771870714    4.04950048210502
H         7.33097808183054   16.24625588705020    3.02217313486248
C         6.17438073897091   18.05813309274258    2.74049563187335
H         5.28816353180618   17.52275596448708    2.37641699765496
H         5.82565110372350   18.88957545850022    3.36715360441104
C         6.90938453762109   18.61344968669719    1.57190525569449
C         7.06563972830661   19.81352378412849   -0.23376864654163
H         6.67726535780780   20.47005044165698   -0.98646272965614
C         8.29047097846964   19.25941725758874   -0.04883969509624
H         9.15720866502729   19.38577426323767   -0.66429333111872
C         8.19025693958955   18.47573641121517    1.12968224214794
H         8.96958928327676   17.89413514004661    1.57715229525009
C         7.01401477949664   15.35670698174531    5.91720093618313
H         7.32895054323280   14.55230840850113    5.24920118333283
H         7.88433882885813   15.92930862170356    6.24565008145148
C         6.23276927291456   14.81373175716028    7.10297261120022
H         5.85647586162508   15.65940156130717    7.69272496552349
H         5.36213111383706   14.26014007633388    6.72846020695449
C         7.02737573764813   13.93530049473388    8.00366196371741
C         7.34592099815898   12.80328459707998    9.83190774215496
H         7.05708818114872   12.43660362066707   10.79667573273311
C         8.46891799587985   12.63301411040728    9.08917903173555
H         9.33494755941967   12.05954475461772    9.34829668450432
C         8.26277657971672   13.37158697301426    7.89549383290546
H         8.94546005458162   13.46337586559279    7.07603063215471
Se        1.94556704643937   19.70761096470214    7.46732038338724
Se        0.78734089912815   16.90838715932441    5.34948172215235
P         0.31690583423288   18.60466746617453    6.63922644506327
O        -0.00652527974850   15.66046734936462   10.85936476884165
O        -0.25167625817417   21.49954748952186    2.41542815659104
N         3.09357604659096   18.69161314830808    4.31836422482926
N         2.91169667233825   19.40063596321206    2.24714089002085
C         3.43400920988041   20.01708995563274    4.28453230064707
H         3.73302440367607   20.54754534312400    5.17095329917708
C         3.32219197459253   20.46432326624774    3.00551352782883
H         3.50391818377739   21.43551117045303    2.59893010494144
C         2.66730145601873   19.35205990276650    0.87813988701033
H         2.37056954027869   18.36953265764152    0.53787929953307
C         2.77725804542029   20.37697378068302    0.04954051373700
H         3.07089846875121   21.35978429223354    0.37155862527420
H         2.57139058062768   20.25360704291090   -0.99733562986502
C         2.78299455295129   18.35077334869372    3.08290850616848
H         2.46652726577749   17.36902563328140    2.77436351805060
C        -0.77738451809366   17.98063098161489    7.99890678966461
H        -1.63371470955324   17.47360354033622    7.54955785084715
H        -1.11674505130458   18.84295099035015    8.57716573222344
C         0.03933733761442   17.03085873979699    8.85972666958328
H         0.92571378511564   17.56589604923266    9.22395645471685
H         0.38781244999917   16.19911482823279    8.23333662764198
C        -0.69613563359192   16.47612618878600   10.02833591229718
C        -0.85292349106175   15.27736427903880   11.83485390439018
H        -0.46475202113182   14.62147793981806   12.58821888450190
C        -2.07787811579180   15.83083044775479   11.64881449150937
H        -2.94489877272794   15.70460583035365   12.26390409152341
C        -1.97731633090403   16.61366874802507   10.46975748447062
H        -2.75667861055149   17.19449626506012   10.02134221679301
C        -0.79952834626194   19.73199685554892    5.68284354116712
H        -1.11466851640977   20.53612862838988    6.35101576677862
H        -1.66964352180337   19.15887187340497    5.35467130292464
C        -0.01901599578456   20.27542517308173    4.49681683062682
H         0.35699071588825   19.42990697177601    3.90667506002120
H         0.85176715086842   20.82904972296721    4.87097647138443
C        -0.81404065302343   21.15408222214918    3.59668003718926
C        -1.13278290636660   22.28747274067581    1.76932139495719
H        -0.84391312874976   22.65521289300436    0.80496713850972
C        -2.25623376137048   22.45613155569635    2.51172569715867
H        -3.12263622569501   23.02910367999345    2.25273990205643
C        -2.04996581959534   21.71666573140466    3.70483664799571
H        -2.73296673386978   21.62352619261545    4.52387704850341

