49
CSD_code = IJOVUY | q = 1 | S = 0 | Stoichiometry = C20H22BrN2NiO3(1+) | MND = 6
Ni       -4.06753309303375  -18.52665373690479  -22.59969017622856
Br       -2.31692406556593  -17.10363415003143  -23.04026977986246
O        -5.09586563115148  -17.20141573089851  -21.45124679660054
O        -5.24597633912281  -17.84553731096871  -24.42930702898995
O        -6.29150508485509  -19.22708134596348  -22.46597231703108
H        -6.50093924722900  -19.46172372527764  -21.55298408779836
N        -3.47860612540914  -19.21839649073285  -20.53562398755194
N        -3.36899696786723  -19.82618403663474  -23.62865520333758
C        -6.92863650134756  -18.00826245467337  -22.80334721147387
H        -8.01327501362485  -18.08742516265434  -22.65754694390165
C        -6.37676326658278  -16.83865271437669  -21.94442900948197
H        -6.32158090845816  -15.93502098886092  -22.56306181022525
H        -7.04006405399362  -16.64650406326459  -21.09051986618099
C        -4.53788297675190  -16.39459028180570  -20.48208714811543
C        -4.87117794931910  -15.05435915647821  -20.35150770688281
H        -5.57475853320178  -14.59267653446602  -21.02481468841928
C        -4.28550420338305  -14.27636746381723  -19.36660094467103
H        -4.55119217357708  -13.23390955629921  -19.29074531074093
C        -3.36520590351012  -14.82979097054077  -18.49325472525787
H        -2.90713771384564  -14.22376143349372  -17.72864895359675
C        -3.03571430754242  -16.16358019605795  -18.61177615324297
H        -2.31625839687683  -16.59930204794102  -17.93541874889822
C        -3.60709303821277  -16.97538385586469  -19.59709120772048
C        -3.17556331143364  -18.35715370318175  -19.64630566758034
H        -2.50977805072709  -18.64255907921298  -18.82516280594252
C        -2.89058282123225  -20.53084922926455  -20.43473896932920
H        -3.69833432833817  -21.25943388401416  -20.30247705137481
H        -2.21410570420881  -20.59970918470966  -19.57180187047550
C        -2.11542475402578  -20.85916547618151  -21.71428570737211
H        -1.39221146255114  -20.06461520987060  -21.91511941990070
H        -1.56531534108272  -21.78520076646211  -21.54825468475841
C        -3.02059770080735  -21.05429913152304  -22.93837781377100
H        -2.51929776161969  -21.72887343216393  -23.64236225516287
H        -3.95680179320434  -21.53194849902946  -22.62239244467141
C        -3.18999700889594  -19.77165316356524  -24.89720893039436
H        -2.69691979760321  -20.62588867885449  -25.36768416694675
C        -3.58456850402311  -18.76391342258042  -25.85568863096287
C        -2.93449336942066  -18.75711187359901  -27.09809921163444
H        -2.09708579752021  -19.42047586296948  -27.25087745914155
C        -3.33392975207713  -17.91236204505156  -28.11045009233971
H        -2.80891327887042  -17.91126218402139  -29.05187289232416
C        -4.42593381399011  -17.07821680638615  -27.92067492793820
H        -4.75682086093611  -16.42768277359875  -28.71475128877909
C        -5.09562970173354  -17.07031892149962  -26.70994844580613
H        -5.93900925981772  -16.41264083644929  -26.57001886473921
C        -4.66661053591887  -17.87824738544061  -25.66756132381012
C        -6.65081705194163  -17.77638216204377  -24.29689442178247
H        -7.12636536611273  -18.56704671284722  -24.88997078818814
H        -7.04940137744529  -16.80227616747274  -24.60242005866436

