48
CSD_code = IJUGOJ | q = 0 | S = 0 | Stoichiometry = C14H28N2S3Zn | MND = 5
Zn        7.23431066341542    6.03801305399277    6.34062544716788
S         9.87729757766121    6.82425739565544    6.24652740252067
S         5.07662868353688    6.71819791702556    6.91133440341310
S         7.75774115827497    4.20981905199197    4.93338919504222
N         7.73350863147747    7.61059076004828    8.41833340053084
N         8.07500149301535    4.73709139359231    7.97719611696673
C         8.00161804586148    6.69705566419418    9.52863664676677
H         7.50093967897075    7.02738167548016   10.44897128367886
H         9.06996107844658    6.69838545419265    9.74663206598441
C         7.52367494551920    5.27759482100982    9.22258547718233
H         7.76722434125938    4.62701131094400   10.07646308299122
H         6.43805959807315    5.31094415040414    9.10838082636275
C         9.53014802541463    4.59829968234799    8.03226074276084
H         9.80491660456536    3.54051841779129    8.13234769030917
H         9.91016806003906    5.10204017974825    8.92359592232013
C        10.27128780247901    5.13577284084639    6.80794745717507
H        10.02101413396766    4.55145491865577    5.92003594290577
H        11.34630722186657    5.09298944544350    6.98579755362348
C        10.13222489256589    7.87024811833987    7.72687512723975
H        10.60418837652498    7.24944672972261    8.48387683909859
H        10.83712106801551    8.64815230019007    7.43389502551774
C         8.84383550660032    8.53327562741575    8.20649278668112
H         9.07359428185835    9.09248738611646    9.13114853658458
H         8.53536673182235    9.25217111607119    7.44733951617164
C         6.47534045281417    8.34009843136115    8.60894084771261
H         6.68210686828052    9.35966418023956    8.96713836247179
H         5.89535350096061    7.82905382936344    9.38116000293044
C         5.55095173224010    8.42281925895625    7.38544678412996
C         7.37931969623613    3.48614029843140    7.65294584339874
H         6.31600929020797    3.68676249214328    7.81129340434876
H         7.68383919783062    2.69798659444450    8.36005758062262
C         7.51074242831063    2.91683870966974    6.22168460683230
C         4.27167819901314    9.14614869514068    7.80850484518026
H         4.49363007955419   10.16578218558807    8.12134057910318
H         3.79035070515595    8.62006525690627    8.62940675104250
H         3.57562647457051    9.17615699107589    6.97478384796925
C         6.16877615542664    9.14666184387720    6.19660787215058
H         5.45182436497339    9.17078740750526    5.37865704266536
H         7.06374134267053    8.63400125841956    5.83776213813464
H         6.42304509771568   10.17329771009687    6.46378391152437
C         8.65653948001139    1.91124262522812    6.09972909593234
H         9.62527723837388    2.36907502597274    6.27927736248698
H         8.66777587288360    1.50806597399223    5.09029226461054
H         8.51619380419841    1.08918755833595    6.80180394830294
C         6.19695702886236    2.20376645402492    5.89330352481442
H         5.98397983480439    1.42840308656002    6.62929422962211
H         6.26537185740105    1.74713558791194    4.90941179690164
H         5.37493069627283    2.91705913353845    5.87878486811531

