103
CSD_code = IJUGAV | q = 0 | S = 0 | Stoichiometry = C48H44ClN4O3P2Rh | MND = 6
C         9.62386702916361    1.85442354147135    6.98427535423924
C         9.60060711195721    1.47248485374406    8.30503135490863
H         9.57889827481671    0.43546270032665    8.60201642605092
C         9.60692627438406    2.44431329143431    9.30906609469244
C         9.63718230649062    3.80405250629794    9.00497422854073
H         9.64238845522714    4.52211417095120    9.81041067935779
C         9.65926245489001    4.19802528624739    7.68786207654723
H         9.68293552505613    5.24649019293219    7.42918503716718
C         9.65326675366767    3.23852203800710    6.66795045670199
C         9.67028609722744    3.55066020389427    5.27469698147797
H         9.67659638589424    4.55828672661309    4.87998263291046
C         9.64523110293797    1.49610286070300    2.49544343009383
C         9.64764801006701    0.38507786236482    0.35448304056462
H        10.30624469906354   -0.31756619954677    0.87202221888679
H        10.09429593352523    0.64400690122452   -0.60872331532109
C         8.27979317889797   -0.26318655473252    0.15017159690715
H         7.59086110364322    0.43377672223336   -0.32228288755007
H         7.86959611297777   -0.56469769722388    1.11040421952509
H         8.37521439888616   -1.14350544332702   -0.48027163550780
C         9.39690315964198    2.86591247525456    0.49882653092168
H         8.82573343134740    3.51144446114164    1.16887885280541
H         8.82214240309721    2.70420196366274   -0.41718697466243
C        10.73593077280739    3.52349160271200    0.17604581366909
H        11.28133033645373    3.70387451062411    1.09825929945147
H        10.57333502380134    4.47045771516649   -0.33136147798822
H        11.33572512315398    2.88189291096614   -0.46574160807800
C         6.45773066759435    0.85771403671701    6.80946754992491
C         6.87669058217118    0.03219756717421    7.85038488223514
H         7.67840861935284   -0.67124888896098    7.67496715952698
C         6.26808442530629    0.10874702509173    9.08871586117369
H         6.61266210079267   -0.52001010003044    9.89554668552406
C         5.22624138744936    0.99912510267438    9.29324112829423
H         4.75449346842917    1.06811303576953   10.26217925055917
C         4.78272528979058    1.79515791768475    8.25037995450205
H         3.95622664396519    2.47465508183749    8.40160109186478
C         5.39293430613090    1.72866959590578    7.00951041689821
H         5.03113888699387    2.34882926975653    6.20142091131731
C         6.61051374033275   -0.83132011579644    4.55261992852188
C         7.36647636921698   -1.70027391351569    3.77467824582777
H         8.41115733855966   -1.48785605421898    3.59872235696588
C         6.78127301780275   -2.83134691130204    3.23322371909250
H         7.37267959733102   -3.50787842616315    2.63367611738181
C         5.44253765164110   -3.09856117718140    3.46415675996261
H         4.98748347445166   -3.98444679227237    3.04597520761677
C         4.68494065774538   -2.23092752329050    4.23534742498298
H         3.64024513731387   -2.43882556827190    4.41532505906831
C         5.26342757773747   -1.09992358824738    4.78006216063832
H         4.67411091642000   -0.42522625720142    5.38558887552391
C         6.67643375583430    1.97369187795949    4.14626402595445
C         6.69854967376698    3.30278025141644    4.56713995104876
H         7.00960166814950    3.53745159122302    5.57669418811805
C         6.33219559788263    4.31344080723952    3.69909374617128
H         6.34930812198217    5.34074521152494    4.03299344419436
C         5.95468879471554    4.01240432619872    2.40000614292857
H         5.67924607833439    4.80491629844946    1.71979643553559
C         5.93583420565517    2.69516697315230    1.97468478767600
H         5.64314843727140    2.45726091086194    0.96219690674256
C         6.29713534419086    1.67932624295742    2.84149687780224
H         6.28467325310684    0.65177352079421    2.50644776210172
C        12.73258753399755    0.80221471441596    7.02940010858844
C        12.25690293414685   -0.06099072066951    8.01419217190871
H        11.47772572738597   -0.76742652501372    7.76464291802076
C        12.77975048923202   -0.01709669468426    9.29270716614327
H        12.39051313795755   -0.67558846914870   10.05416937093531
C        13.79181726769512    0.87934639136037    9.59581995218642
H        14.19488716549716    0.92432521820703   10.59660984888006
C        14.29443448064998    1.71162685163471    8.60980995032172
H        15.09958570511898    2.39559564705926    8.83697606458403
C        13.77145947538430    1.67607736250219    7.32839153220641
H        14.18345850850123    2.32220237169186    6.56631230838244
C        12.72475901120669   -0.84453699063676    4.74416940536946
C        14.04845930310916   -1.12618420246371    5.07197185546296
H        14.59468723864251   -0.46288270620927    5.72843148006127
C        14.65968843062833   -2.25619486770097    4.56182489643451
H        15.68608859531794   -2.47359650400435    4.81993317128829
C        13.95733816090968   -3.11042737821383    3.72616560386611
H        14.43676595171307   -3.99620912962874    3.33539512270429
C        12.64248819606200   -2.82995845565227    3.39505119427470
H        12.09433150221409   -3.49670921179984    2.74519488260127
C        12.02518068108056   -1.69904101785822    3.90040748412228
H        11.00005302084615   -1.47469506852851    3.64383734144821
C        12.69921057099179    1.96900656428266    4.37762813839888
C        12.68561255049718    3.28710190849423    4.83173128713626
H        12.30376571656449    3.50773681136157    5.81968819675713
C        13.15561718581971    4.30567345965307    4.02472428388241
H        13.14984015344733    5.32367374096400    4.38638519387183
C        13.62693249329920    4.02356263434906    2.75244780527609
H        13.99056936792696    4.82113204491935    2.12136280108415
C        13.62133648369274    2.71897996717281    2.28764456736457
H        13.97777658706870    2.49874915534946    1.29183997375907
C        13.15478386515944    1.69512271895795    3.09272967684027
H        13.14190766822721    0.67810907688373    2.72535474334863
N         9.58522530440780    2.03226516932113   10.67346877380593
N         9.66437752270248    2.52539294451461    4.47065250935524
N         9.64942167451811    2.66543042786804    3.16835088358116
O         9.71437580885346    0.35876857835972    3.03380490333512
N         9.56628204832530    1.58909696300432    1.15255318874097
O         9.60937453451712    2.89761510478797   11.53234075399627
O         9.54475877393733    0.83968501827097   10.91554031809127
P         7.35781662316978    0.68328737803776    5.23615108828471
P        11.93857857222265    0.66515736276515    5.39501481431069
Cl        9.61278268198515   -1.37711410487405    6.22310497335384
Rh        9.64999305827047    0.75897552836312    5.30324385443412

