96
CSD_code = IJUNOS | q = 0 | S = 0 | Stoichiometry = C47H44INP2Pd | MND = 4
I        12.60504284356908    5.07800714168186   11.58201074169459
Pd       11.21244806317561    4.95485557382966    9.34459643663083
P        10.64735259438290    7.16819401945400    9.43793261239454
P        11.95687219460387    2.87975471864520    8.72574454658627
N         8.31177390907465    4.75713436317804    9.08491617354221
C        10.20261892709457    4.98921593524727    7.63364627801028
C        10.76188707439261    5.20682537968267    6.38708395776604
H        11.83622654265296    5.34186448862103    6.27754261882162
C         9.95097552580410    5.27370804617947    5.25899765193084
H        10.39277031598064    5.45569857875191    4.28886724770214
C         8.58390332949295    5.11202151523819    5.38536840618465
H         7.95141918397233    5.15634773436202    4.51007065333689
C         8.01483672910538    4.90090693116896    6.63057969200273
H         6.94347002690534    4.78931016230872    6.71564005786013
C         8.81822735377157    4.84881896434926    7.76406418593627
C         6.96263431009484    5.23343919791339    9.31985616493868
H         6.20788590561129    4.48061345207611    9.03094429757548
H         6.79474503102972    6.13871206548737    8.73182781957119
C         6.81759593617150    5.55070761110110   10.80826470197883
H         5.80635694785674    5.90892419170954   11.01014424339415
H         7.51600707468837    6.35214309051009   11.05196186712946
C         7.12975651231844    4.32561817399133   11.66425509091894
H         7.12875735951230    4.59763738590442   12.72173002621253
H         6.35398642506496    3.56962288380309   11.51281422865363
C         8.47854706800696    3.73297868307705   11.26733347572343
H         9.29369368524533    4.43668517917228   11.49670372754740
H         8.65460494454779    2.80307459146570   11.81266755184787
C         8.48977415816410    3.47998552362673    9.76287222830636
H         9.43910683439296    3.02194837616479    9.45791278261809
H         7.67881145104906    2.77819355863529    9.49109522811279
C         9.12200166466977    7.94298227616891    8.80027539435970
C         8.89265344156835    7.93739538991279    7.42637728095098
H         9.62968274956821    7.51172146101970    6.76081862145261
C         7.73542581862434    8.48496907322986    6.90730383517826
H         7.56985716752660    8.46903749047115    5.83998396190495
C         6.79244854183010    9.04931015479970    7.75127279360941
H         5.88505897356775    9.47230486753741    7.34583601560737
C         7.02396032681528    9.07882049707213    9.11582923555734
H         6.30061755391424    9.53148047400138    9.77851054065898
C         8.18206338827837    8.53114432793246    9.63950339228174
H         8.35694699577683    8.57730580902794   10.70509244665580
C        11.89534932545400    7.95548616713068    8.36921871204090
C        11.76232439120309    9.25238195418634    7.87914826124578
H        10.88177930056546    9.83291541488900    8.12018943712856
C        12.75271466406643    9.79167278998241    7.07926805798218
H        12.64567542008392   10.79781160205684    6.70006291709035
C        13.87960769468313    9.04857995961802    6.76224424913795
H        14.64717815343739    9.47627208642183    6.13402632306980
C        14.01908263008843    7.75974581483970    7.24864030437748
H        14.89370152720921    7.17523624902624    7.00151004772079
C        13.03024818853260    7.21729391283197    8.04929003877676
H        13.13414232639436    6.19820747324433    8.43330986724697
C        10.83684472794315    8.05258344293214   11.02276071122135
C        11.64402331180752    9.16907774922069   11.19050706864740
H        12.21869606572045    9.55836297373238   10.36246429133071
C        11.72917533896742    9.77639926761330   12.43191387107073
H        12.36523080263571   10.64035515991882   12.55850578676476
C        11.01588626513870    9.27795590940916   13.50765825479160
H        11.09223681529609    9.75344303216149   14.47411522814356
C        10.21820483059043    8.15607477494535   13.34861941883514
H         9.67464444883419    7.75114915761954   14.18937463098470
C        10.13557439720840    7.54451439464780   12.11417334304439
H         9.54389200021633    6.64531850634757   11.98957395048843
C        13.44741814822708    3.07221878400120    7.69383908939691
C        13.68783691914110    2.39881288887448    6.50144639846691
H        12.97103080495019    1.68424900700370    6.12324583515224
C        14.85862451305704    2.63322270800493    5.80086790966140
H        15.03716235291128    2.10917774620169    4.87289376830767
C        15.80054523222424    3.52586937500100    6.28465039370111
H        16.70923948648718    3.70543380314243    5.72898009176543
C        15.58183083084631    4.17416142331567    7.48958671138568
H        16.32445133830102    4.85055477241437    7.88721133247122
C        14.41233775487068    3.94867251627458    8.19045371727507
H        14.25907728705048    4.42791932975528    9.15152957806442
C        12.56441291158700    1.75930765545159   10.02997224807481
C        13.68936727099658    0.96299851417043    9.85557232921316
H        14.25609418758901    1.01587171945350    8.93645753807614
C        14.08853763858613    0.10709796490391   10.86664478144020
H        14.96834632477174   -0.50488578492789   10.73094255664481
C        13.37006819367832    0.03726031061680   12.04827307752089
H        13.69168141072057   -0.62711165077914   12.83646818398158
C        12.24390872135939    0.82477043913539   12.22299223969151
H        11.68606993270448    0.77880636893848   13.14621714596899
C        11.84249231521237    1.68313245518372   11.21782177824561
H        10.97526109934964    2.31737694628517   11.35623929748834
C        10.88179793197581    1.73301348841487    7.78899005499191
C        10.53216888080705    2.01229994881848    6.46960361050840
H        10.94041160363695    2.88133984856902    5.97654409995571
C         9.65421925600540    1.19215546178166    5.78638249926999
H         9.39485233331629    1.42609152060463    4.76423470751449
C         9.10703759545287    0.08299712190626    6.40905875592736
H         8.41862356212546   -0.55539356976817    5.87534280019599
C         9.44599492096200   -0.20141979915011    7.72088410568830
H         9.02392602196422   -1.06425572378416    8.21536671160316
C        10.32357564476342    0.61697598511966    8.40851434270394
H        10.57458006840253    0.38352129384775    9.43384932528833

