60
CSD_code = IKACII | q = 0 | S = 0 | Stoichiometry = C30H24ClCuIN2P | MND = 4
I         4.37777630855423    1.71937778901255    5.44255878108915
Cu        4.77611317687953    2.43563720821136    3.10561947538073
Cl        7.38968970568157    8.98105716610230    3.99773981491353
P         3.15811499035581    3.87168522968220    2.51634298920286
N         6.41540675744303    3.39382135060264    2.47306581249417
N         5.36967546494179    1.05773390490834    1.81849472871590
C         6.99357051610598    2.73911791428485    1.52123701676729
C         6.52850455571259    1.41728318583130    1.22691481106477
C         7.22356172232240    0.53491696728210    0.39050338498563
C         6.72249943672075   -0.73176047516720    0.19018815785927
C         5.53876417698880   -1.09766589205550    0.83153532047640
C         4.90475907529295   -0.16947092078751    1.63293749572202
C         6.70572425824511    4.70621386067940    2.79434306363437
C         7.03157449175664    5.66687491349472    1.83351117365067
C         7.23845777919157    6.97988837962852    2.20304404727865
C         7.13945578275288    7.33739208229391    3.53886654143367
C         6.82493378113955    6.39534619691326    4.50796229417053
C         6.59496284581236    5.08971752897629    4.13405619265889
C         3.38112201890112    5.51897724102606    3.24029759485308
C         3.35363768947952    5.60152713269117    4.63249550581377
C         3.58515393719286    6.81174036762110    5.25568705620024
C         3.86130561763847    7.94041075234286    4.49954390168230
C         3.91219763512261    7.85469300071070    3.11830723495105
C         3.67910157248420    6.64738697790577    2.48483705025303
C         2.79937123776655    4.23351240306215    0.76550082740400
C         3.87673689862861    4.22150171454105   -0.11646159315798
C         3.68481517685109    4.48740128439689   -1.45905856651491
C         2.41012640799174    4.75423406382019   -1.93211445549272
C         1.33228830705072    4.75140651859375   -1.06120432692194
C         1.52049245598020    4.49094613431551    0.28420632241148
C         1.54141796603100    3.34869376281754    3.15793498007954
C         0.57938983914383    4.22832694631966    3.64354753556420
C        -0.62436053566355    3.73374531771256    4.11148243892221
C        -0.87295171653170    2.37062037080246    4.10081158196429
C         0.08367080260492    1.49219018346816    3.61892414457923
C         1.28771685751844    1.98038161510756    3.14942310157152
H         7.83492967914913    3.13780973209921    0.95544378736017
H         8.14489030310627    0.85576338697016   -0.07125837381856
H         7.23889719424679   -1.43376679589910   -0.44674545293006
H         5.11993361405269   -2.08250737362458    0.70439647872917
H         3.98577718205060   -0.41246700937648    2.14951656913038
H         7.08627294675852    5.39163104680794    0.78957768218854
H         7.47161539076216    7.72617580530299    1.45950729181862
H         6.74915593080448    6.68713213347560    5.54313685396328
H         6.34049501914935    4.34598434696498    4.87357712230511
H         3.14711172834877    4.71439834762849    5.21628160146824
H         3.55414276634317    6.87338239536117    6.33323316768798
H         4.04394755359134    8.88681558957306    4.98618732614005
H         4.13549694242097    8.73282271939640    2.53005105433528
H         3.71927500101157    6.58337233696116    1.40577110374992
H         4.86653129944933    4.00060315161967    0.26233869709304
H         4.52514250506248    4.48168847730887   -2.13854692012449
H         2.25644303953314    4.95889701380891   -2.98124580093314
H         0.33852392750494    4.95416307462544   -1.43293161850514
H         0.67836992613712    4.48708224405119    0.96176148086912
H         0.77604927903523    5.29167478254861    3.66124153758503
H        -1.37084871020144    4.41612228548591    4.49112260769789
H        -1.81174227439901    1.99213867855339    4.47670074684693
H        -0.10526804575143    0.42922288787174    3.62182122238641
H         2.05358080810821    1.30689856522753    2.78498039966877

