111
CSD_code = IKACEE | q = 0 | S = 0 | Stoichiometry = C59H44N6OZn | MND = 5
Zn        4.13499188872754   11.92639526972926   13.72226598643015
N         5.07926847886462   13.69678906513326   14.22361445503383
N         3.08403949117472   12.94372463358056   12.30261012399339
N         2.92514425724753   10.33081221861130   13.49392253503800
N         4.89890180855782   11.09709614374262   15.43379474222899
C         6.01973832271409   13.86108236193761   15.18772757195934
C         6.56308099118427   15.19082565212707   15.11897731640383
H         7.30994453593847   15.59116205458725   15.77670118475522
C         5.93673921100169   15.81491870160733   14.09482897740453
H         6.08919475021738   16.81534816132876   13.73877301818774
C         5.00046799440617   14.87147024934234   13.54751831996476
C         4.16239333452244   15.13925193133628   12.46457153920643
C         3.26157128245332   14.22951897318489   11.90932005850544
C         2.35326144195753   14.54469821561222   10.83857219160974
H         2.26841319177219   15.50130956949984   10.35994851576636
C         1.63895749004336   13.42215002951979   10.59411636879782
H         0.85512027952460   13.28080443995931    9.87531336606168
C         2.11179290655844   12.42228515270895   11.51511800699169
C         1.59979832617002   11.12686800174885   11.59170788880228
C         1.99223154919979   10.16708965048812   12.52407588736842
C         1.45408648956443    8.83374184701226   12.58422606576119
H         0.70647138441585    8.43617793661438   11.92545175892898
C         2.07767799129902    8.20985017882960   13.60927539549935
H         1.91764695245882    7.21097463644478   13.96677700271692
C         3.00760815077473    9.15758411704695   14.16634823453567
C         3.83289044402245    8.89613060080644   15.26212540364841
C         4.70080801502049    9.82004501653632   15.84599986756850
C         5.56250001169511    9.52747194959858   16.96082535386621
H         5.62713038739181    8.58562816091667   17.46957342606906
C         6.27641584557604   10.64898617931046   17.20501096597296
H         7.03542876066671   10.79540953687183   17.94852651072440
C         5.85006871272829   11.62861618004418   16.24145957801709
C         6.39207821755254   12.91000376651677   16.13912632886422
C         7.44249997204233   13.28576376219718   17.10894233792272
C         8.72911034258155   13.58999586108977   16.67451849201174
H         8.94750114910606   13.55326285631318   15.61694386220458
C         9.71600870710271   13.93185988749002   17.58107361078880
H        10.71241874431644   14.16199684064694   17.23061136867762
C         9.43040261031082   13.98091927637708   18.93530551057248
H        10.20066655018781   14.25029086549827   19.64312672262813
C         8.15099632286882   13.68724209762916   19.37686064806365
H         7.92056898775869   13.73166315509931   20.43164652822310
C         7.16455515488237   13.34049378442008   18.47169581946204
H         6.16404146030879   13.11998030461305   18.81444298441313
C         3.79041140688541    7.53363910721760   15.83373539899804
C         4.14629424043573    6.43566438200347   15.05467944886562
H         4.46541542279333    6.59429364850885   14.03477650255162
C         4.09893480997195    5.15623850173696   15.57744845848612
H         4.37700482363861    4.31217543283148   14.96184253283213
C         3.69604439809559    4.95380822462217   16.88769678088612
H         3.65408922038586    3.95338052555622   17.29437229131100
C         3.33997551278458    6.03986408241118   17.67058286788532
H         3.02021198926540    5.88689959122691   18.69150664345612
C         3.38680739742609    7.31987164492189   17.14846017353020
H         3.09346062849934    8.16445983049739   17.75473763011701
C         0.55504652520098   10.74829503733507   10.61466173315759
C        -0.74001088766666   10.46417368985868   11.03691930306340
H        -0.97835922637486   10.53023895825188   12.08873602764310
C        -1.71507804926993   10.11339332232313   10.12086295597890
H        -2.71841488062089    9.89897245087510   10.45988141494699
C        -1.40826735514706   10.03593729624802    8.77257057022233
H        -2.16998426957485    9.75975929658034    8.05813255917462
C        -0.12136104262509   10.31540533568025    8.34394638153508
H         0.12307344781457   10.25516202522134    7.29307887138012
C         0.85344101819292   10.67268615330092    9.25767988707435
H         1.85968248734227   10.88599309686352    8.92704044948205
C         4.24055159747164   16.48346625848669   11.85195741930235
C         3.85800810754124   17.61460426260641   12.56594508121787
H         3.49159593875186   17.50127853336290   13.57596211319368
C         3.93149745500801   18.86826828941924   11.98632337523176
H         3.62468273633109   19.73853854755982   12.54848375819356
C         4.39201206550365   19.00984861362640   10.68798550446624
H         4.44981398112664   19.98934035437898   10.23637317249088
C         4.77628221565243   17.88973633597538    9.97005239042756
H         5.13786804165067   17.99466911457605    8.95701727486838
C         4.69918500889806   16.63511262383234   10.54668626877542
H         4.99898422729788   15.76090226314538    9.98584455988029
O         5.68612229564374   11.28809481624204   12.43612480434333
N         6.73167595887101   12.03884566876943   12.42257208092957
N         8.24717060475000    5.38443585680176   17.97068731900052
C         6.72417921559434   13.15425700316296   11.67827136480339
H         5.81018985714296   13.32330714906765   11.13052719393062
C         7.78653926613186   14.02503676244830   11.65381708584085
H         7.72669456715375   14.92255135855897   11.06048782314669
C         8.91777937764951   13.72699222666699   12.40365231207054
H         9.76856236054185   14.38967486370140   12.40442019371305
C         8.93244599802349   12.56077002586495   13.13823189677933
H         9.80871083743035   12.28244932304686   13.70188746940576
C         7.83154709245819   11.70394410719490   13.16336263715724
C         7.75929519853970   10.47598511787229   13.89916348920515
H         6.91384952221212    9.85946021688027   13.63183405388689
C         8.59293430257158   10.09123768046944   14.88613495687829
H         9.39054672575408   10.75370827222404   15.20027688132947
C         8.49747367640948    8.86694917519190   15.63118125719967
C         9.30642991744355    8.68226279910908   16.75920831506437
H         9.99814262398568    9.46384301881147   17.04271248653281
C         9.23017187892159    7.54826710926922   17.53053229037262
H         9.85938752491761    7.47269944811937   18.40257628488913
C         8.33455468979379    6.51364533411455   17.20971963550023
C         7.53348079148398    6.68939048190680   16.06699964089858
H         6.84236989829234    5.91911040075554   15.76748531164979
C         7.61237463226850    7.82989377627520   15.30828506010282
H         6.97728043384085    7.91809714799343   14.44125502989943
C         7.19086345260595    4.42633147434007   17.75708510163965
H         6.22981502997834    4.93113036720265   17.63923482023061
H         7.12146285904041    3.76837090794065   18.62085932582413
H         7.37341471720796    3.81159551947706   16.86814980216071
C         9.21371385004788    5.11186144547644   19.00526071940227
H        10.22757243527639    5.29163764096443   18.64132336364385
H         9.14384608009862    4.06643557969354   19.29841288377013
H         9.04477043930664    5.73186182005509   19.89321547740739

