55
CSD_code = IKADIJ | q = 0 | S = 0 | Stoichiometry = C26H20N4O4Zn | MND = 6
Zn        4.18897969262545   10.96635147519997    5.91531690133249
N         5.30206369029753   11.24745348308076    1.39650536684335
H         5.14988578254764   11.69369674398983    0.50833254033284
H         4.61465358983690   11.37136929596574    2.13211642655453
N         3.62110416552839   15.47991810452403    6.93924565127900
H         4.23663204356512   14.72350275823821    6.66015127993082
H         3.92801212648106   16.42894258664816    6.81112795049174
N         3.68055718374017    8.90781249812502    5.82008772859045
N         4.45745154477788   10.38215225083026    7.93849907966885
O         6.14095664961592   10.63166836522005    5.42955432273023
O         4.61273881695833   11.07290956624957    3.94480634559718
O         2.28018174560963   11.61202693145180    6.17161021393240
O         4.00390800534489   12.92263863079315    6.38196370275899
C         5.82601988924145   10.84840688524283    4.23512025828230
C         6.86919990773996   10.84345437857828    3.18937102494076
C         6.58191624027822   11.10289161644823    1.83257167508020
C         7.65014141820311   11.14758675967872    0.92505445784159
H         7.43644027806717   11.36039494895155   -0.11353445702210
C         8.94445550593129   10.92615525797639    1.33578743106486
H         9.74845375730066   10.96712796437678    0.61450062707905
C         9.22266919934883   10.65450796564352    2.67057941015168
H        10.23912550547143   10.48088900750506    2.98963260286492
C         8.18880337036402   10.62108834990363    3.58066941264918
H         8.37198017908937   10.43005835364287    4.62716527588833
C         2.74715621184615   12.75798802846825    6.37671713163035
C         1.83075933697412   13.89369631163864    6.60428251081920
C         2.29439743999015   15.20987331787396    6.81274293449530
C         1.34582551535445   16.23366006869249    6.94942512845801
H         1.69664036750252   17.24625261959352    7.09489211538538
C        -0.00304037302916   15.96671365442191    6.90269255869299
H        -0.71187659852274   16.77551822714374    7.01112330982548
C        -0.45710510143644   14.66633684843248    6.71372611508236
H        -1.51598588511745   14.46021108454787    6.67806934189301
C         0.45890676301031   13.64845802436099    6.56174039423912
H         0.14046650093402   12.63042945988575    6.39647052388034
C         3.30507903585332    8.21755674228076    4.77202712338666
H         3.21155706784836    8.77205048198098    3.84949000147843
C         3.04241752882155    6.84350864236726    4.82916228891678
H         2.73603017420194    6.31857836086728    3.93815835787635
C         3.18142550698294    6.18699645491541    6.02769677838780
H         2.98835639384027    5.12691099804679    6.11206015228801
C         3.58294973137856    6.91060987290833    7.16376851703493
C         3.82281071438027    8.29258219296869    6.99858343874116
C         4.23669283636467    9.07684990010213    8.12550875855433
C         4.39693593598493    8.45559498996140    9.38367363517704
C         4.80485970716006    9.26843753682733   10.45532060364621
H         4.93928345882556    8.83117182460383   11.43455734827670
C         5.02578662444453   10.60623387145216   10.23575843674975
H         5.34004223452749   11.25811449933256   11.03551772563338
C         4.83854914290808   11.12407608894338    8.94848369462061
H         4.99958979324380   12.17035292980571    8.73209621713772
C         3.75468348761845    6.31802653272502    8.44809101822747
H         3.56524212944766    5.25941574301460    8.55013388974130
C         4.14495821778131    7.05921454337047    9.51302740479681
H         4.27447581290799    6.60607597019899   10.48506731606656

