47
CSD_code = IKAHIN | q = 0 | S = 0 | Stoichiometry = C24H12Br2HgN4O4 | MND = 6
Hg       10.61984751016696    6.35131182207386    6.09743148339806
Br        8.91881939238062    7.90350364951910    6.97733287000577
N         8.88486509797227    4.40683622853466    5.94772666908487
N         8.98425680054074    6.30845975582841    4.00094191284214
O         4.43712713773173    3.45661131011533    4.62841224126840
O         4.25604621965441    6.10115497886661    3.70131745520963
C         8.88611405366188    3.41422809856382    6.82436642736925
H         9.82006291497984    3.24083571543157    7.34418531867235
C         7.77231122136702    2.62242905877191    7.07502133360423
H         7.82603845444543    1.82257631437709    7.79570298521545
C         6.60382654065045    2.89561778188557    6.38969094122098
H         5.69862674666122    2.32782391740891    6.54825781919815
C         6.58995074228059    3.94341676690736    5.46905870246097
C         7.76962841852247    4.67351409705061    5.26866609583018
C         7.80484215902058    5.75754601041774    4.28296991653400
C         6.61675341138409    6.20546334292990    3.68820817814090
C         6.67911785569967    7.28982074250536    2.81441701827719
H         5.76400287245675    7.66020792232557    2.37624526322582
C         7.90978526499113    7.85269183096045    2.53261824133322
H         8.00139758700519    8.69117264779871    1.86130828202184
C         9.03470553196567    7.31377322845090    3.14212266836326
H        10.02302228377805    7.70765952571249    2.94567720572320
C         5.35641087634103    4.23394685689416    4.70862703593412
C         5.30767778128706    5.59011443246529    3.99605134585692
Br       12.32245324609256    4.80437601537574    6.98116990270248
N        12.35753724609727    8.29593004217211    5.94751298334945
N        12.25846883328013    6.39491857511251    4.00005097871943
O        16.80539833247872    9.24679519584181    4.62856764408578
O        16.98689788404404    6.60356494877976    3.69910803473604
C        12.35601914158359    9.28886718291452    6.82381298425473
H        11.42241584667747    9.46149081416335    7.34446543508899
C        13.47001684985507   10.08022691715090    7.07514687274849
H        13.41611852975016   10.88011173486744    7.79574224006542
C        14.63877855866244    9.80675093601142    6.39034861253268
H        15.54339540709093   10.37554711707612    6.54778144556884
C        14.65258109035743    8.75941371295770    5.46914911640949
C        13.47291403104570    8.02929388893009    5.26857660565098
C        13.43792950042184    6.94530480359003    4.28281853500166
C        14.62614871876165    6.49739607402036    3.68829266477442
C        14.56383249383780    5.41336281138873    2.81402512677797
H        15.47915743044138    5.04243766342063    2.37672680188206
C        13.33309336147603    4.85132790876459    2.53106797027979
H        13.24154309943288    4.01331397518934    1.85919946353088
C        12.20807615933431    5.39035590740948    3.14035642024394
H        11.21952983206947    4.99797682324392    2.94189803593878
C        15.88606583016708    8.46938824779194    4.70838738627186
C        15.93509170198768    7.11333266836045    3.99553732861330

