69
CSD_code = IKAPUF | q = 0 | S = 0 | Stoichiometry = C23H38BMnN4O2 | MND = 8
Mn        1.14837658052588    4.61368815282657    0.36289872583395
B         2.16225660132709    8.57362438327864    4.14845246810254
N         1.37838204264835    7.77703420737604    3.13787243036187
N         0.91065967849446    6.21992598247351    1.63746292748031
N         1.96700266011316    8.29231802996964    5.51619876346985
N         3.03602220864234    9.55866172525311    3.62051409520049
O         1.84053562632629    6.35116851925341   -1.88737800039615
O         3.99756930780899    4.34553583194697    0.96269161352301
C         1.67568380503459    6.55941195347826    2.66249147565337
C         0.05414115242272    7.26945358917366    1.45901238256432
C         0.34517429973522    8.23529336832315    2.37543897981472
C         0.77350529977361    7.65082828563183    6.07506999686054
C        -0.48557321940977    8.46113295904145    5.76109876063261
C         0.58675968591736    6.18802762564436    5.65823555280630
C         3.02928309644897    8.55248877611662    6.48744090136565
C         2.60986101536163    9.48266002671610    7.63210322033130
C         3.60448815543628    7.24535506194486    7.04383227930051
C         3.80710155567152    9.40319477783439    2.38024122240523
C         4.76838180183284    8.21792847801891    2.49065055080627
C         2.98658724125244    9.29166868884034    1.08900154763929
C         3.15782717820836   10.86477838044352    4.26441923597196
C         4.59555873597368   11.27893765009877    4.60516072287231
C         2.48543209109892   11.95046961670604    3.41439182609014
C        -0.71715681317304    3.83317346324491    1.35598559085181
C        -0.93547701020854    4.08814049922601   -0.01692796053546
C        -0.06438412782816    3.26147417656223   -0.76849115963160
C         0.72891490264880    2.52543710609533    0.14498260360105
C         0.33613857224918    2.89924134327878    1.45593748244992
C        -1.56837642655686    4.31828308274725    2.49039566662278
C         1.56320344347985    5.66502960839020   -0.99202042350190
C         2.86435721219267    4.45056029897188    0.72136537124030
H         2.44816732246259    5.93863097428849    3.07521790491474
H        -0.68925661804745    7.27391142954668    0.68559775047727
H        -0.09071125326196    9.20086701692561    2.53105300915310
H         0.89796923830857    7.65913459107143    7.16057587686562
H        -0.72508304764435    8.41027089534040    4.70357345371353
H        -1.32810114554465    8.06578965418905    6.32380009194819
H        -0.34349115824623    9.50339862713023    6.03691802891033
H         0.19291247989760    6.11004628886545    4.65035779670336
H        -0.11770059212080    5.70885654192773    6.33538210548787
H         1.52969071283207    5.65091421290965    5.70571645605163
H         3.82961326231584    9.03718885687499    5.92864392716143
H         3.49748874321740    9.84707427635501    8.14249473803329
H         2.05541556496602   10.33831335726137    7.25481073695857
H         1.99119803861406    8.97116053807322    8.36523591024407
H         2.87559395365508    6.70754202259961    7.64423510515129
H         3.92794413153965    6.60403269365440    6.22757235218715
H         4.46424296268251    7.46592888958063    7.67150531501010
H         4.41462847747130   10.30651780520076    2.29182073859164
H         5.34629430340782    8.27769696156828    3.41015229502961
H         4.22615311985921    7.27741701042916    2.47565509046722
H         5.45403974408728    8.22258733782683    1.64753947853153
H         2.12567971979757    9.95346656259691    1.11411484557797
H         2.65065458000804    8.27359760730187    0.90421041410092
H         3.61291549131674    9.57954841656369    0.24784532658493
H         2.59334773037341   10.79431515275474    5.19609150256857
H         5.12948418169489   11.64102970663298    3.73057859614745
H         5.15522145218169   10.44741157341123    5.02546331916197
H         4.57308131085433   12.08239844883250    5.33708977676652
H         2.50576351841257   12.89870163646238    3.94583727490753
H         1.44962206922375   11.68380283469717    3.21850574930553
H         2.99474490779346   12.07918614542547    2.46336854121805
H        -1.76386453264516    4.65577471273218   -0.42087607297564
H        -0.11551340841714    3.09869088481509   -1.83805056118507
H         1.38293349583437    1.69916499087144   -0.10532927479902
H         0.64964063769635    2.40953777440800    2.36882188874790
H        -1.02566248245167    4.27548528314568    3.43501055480592
H        -2.45109252414556    3.67905951371640    2.58034175037955
H        -1.91260074145500    5.34062312503970    2.32968935728299

