62
CSD_code = IKAPOZ | q = 0 | S = 0 | Stoichiometry = C20H31BMoN4O5 | MND = 6
Mo       14.92429415276417    9.04505188103080    2.00516313480622
N        16.72763970924460   10.15680841240588   -1.76309391540546
N        15.94206264732342    9.93152141024748    0.28983377885020
N        18.36967721614296    9.57881050882171   -3.55755436171425
N        15.89706886977028    9.62353740441943   -4.04031159064832
B        17.02243505927831    9.78034610392904   -3.19089024304675
C        16.13919209052562    9.34355076936722   -0.86904045786685
H        15.86173544705450    8.32963392445870   -1.09566831104264
C        16.42105056436574   11.19616181944588    0.14805074351084
H        16.38558337623762   11.91028576636059    0.95099549050126
C        16.91199649825494   11.34376775321067   -1.11810530273115
H        17.37275922178855   12.18467701871153   -1.59473329975656
C        19.44136303446227    9.19461164994184   -2.63175216119842
H        20.31320261959581    8.97475395940051   -3.25254313152121
C        19.85999869764042   10.29151067601568   -1.64644574980486
H        19.92736611120242   11.25444226628082   -2.14469904138102
H        20.83759840068537   10.04878836538659   -1.23566689019872
H        19.16181821908008   10.37406239794379   -0.81946163593259
C        19.09282131968693    7.90901330889590   -1.87884889266293
H        18.32241230346797    8.08506697658392   -1.13333457887682
H        19.97658947217935    7.53178876305236   -1.36993760192524
H        18.74033274813281    7.14728189535949   -2.57036078597101
C        18.80689246496284    9.80150486931989   -4.93553195443995
H        17.90423834554668   10.04351180206135   -5.49701688874259
C        19.73261699130684   11.01939908470176   -5.03336969610929
H        19.24907522820494   11.89295119628120   -4.60242843712751
H        19.95100085615196   11.22549096461167   -6.07824963203385
H        20.67341420332912   10.84937818581754   -4.51683642613281
C        19.46821163367141    8.58064127800311   -5.58804438142122
H        20.50184558956214    8.46286246285974   -5.27251673238188
H        19.46320224774574    8.70358805178240   -6.66792978680570
H        18.93111811596341    7.66768597837278   -5.34382016229498
C        15.85568462096291    8.55486829116670   -5.03693555831743
H        16.84237772588927    8.08989519776651   -5.01644686927105
C        14.84288252667805    7.47469231157605   -4.63860387581013
H        15.05960879269714    7.10592063669801   -3.63876871174885
H        14.90447939570411    6.64202102842108   -5.33492553811324
H        13.82638000744693    7.85821226564374   -4.65493179850747
C        15.57823058850508    9.03184546127639   -6.46902534141753
H        14.52213765768649    9.23246772077034   -6.63044424133483
H        15.87860187778606    8.25649100134470   -7.16900713294926
H        16.13655123777594    9.93608944109103   -6.69817132571916
C        14.67619105031888   10.43041846619573   -3.94668809422919
H        14.06784276066236   10.16292953530741   -4.81384547272406
C        15.01247085513686   11.91806220463070   -4.07129209146021
H        15.57345019620020   12.25883385136021   -3.20614386019321
H        14.09696551665630   12.50065190713619   -4.13905828911778
H        15.60674359525478   12.09916768315396   -4.96418508094138
C        13.80763213653303   10.18586509905134   -2.70561415236784
H        13.73311355883242    9.12576622355497   -2.48158763876098
H        12.80490361936386   10.56320849737018   -2.89579481789413
H        14.19118016903210   10.70353217187970   -1.83078939575549
C        16.01587217449018    7.42473281350386    1.80257508516884
C        16.27792769599286    9.80827309768095    3.21096312047878
C        13.83247921682206   10.67081393362978    2.18832800062110
C        13.58445607892203    8.28281927994071    0.78928332151002
C        14.00846025913904    8.24975691364508    3.53253661440801
O        16.62625502866382    6.46493901926097    1.69383821260846
O        17.03786994058585   10.23081237422169    3.94980270838064
O        13.17857539675120   11.59606894630080    2.32503276483992
O        12.80514167326066    7.81786497100174    0.09467156175760
O        13.47412119091291    7.77979275033803    4.42727679837468

