91
CSD_code = IKEDEJ | q = 0 | S = 0 | Stoichiometry = C32H54Cl2P2Pd | MND = 4
Pd        8.48291104537085    5.01854257760837   13.58792722280859
P         9.14463533009908    3.17015426278691   14.67431252435190
P         6.40319408046350    4.29490276522295   13.98789602217470
Cl       10.63949276423462    5.67618293243831   13.47812836209168
Cl        7.85223072188148    6.77189910176454   12.27962538964020
C         7.67162699780272    2.23977729991169   15.32717750040275
H         7.69944593632495    1.20728135581367   14.95656570149168
H         7.74253053940945    2.18695228285701   16.42022755726411
C         6.39666658270351    2.92102320347131   14.94125648016357
H         5.46816322990489    2.49303951842393   15.29813760835130
C         9.91235686533018    1.96321150755167   13.49806090512502
H         9.80442868238794    0.94405372020557   13.89644753802754
C         9.10907619008993    2.10566273961604   12.19811683113177
H         8.05604275051262    1.85804434521318   12.38267933731970
H         9.16855140039873    3.16285489212989   11.86578309138597
C         9.67039698100795    1.21205247980048   11.09806686871388
H         9.58311347946920    0.16388731355174   11.39754349441513
H         9.09224130542095    1.34846538847579   10.18220678537800
C        11.13606362344652    1.55275482681598   10.85065541728055
H        11.54172919591164    0.91270225496258   10.06496595183157
H        11.21362657059053    2.58925303342521   10.51715720159940
C        11.93839774613817    1.37732524416188   12.13546220608285
H        12.98554687544718    1.62711796284492   11.95734427034638
H        11.89278252548371    0.33110993833710   12.45203459689397
C        11.38670988395966    2.27196691258322   13.24313458499792
H        11.96748793202096    2.11708815146535   14.15503721772849
H        11.48300761048458    3.32173923154550   12.95228680331034
C        10.28395957622058    3.42600233433529   16.09793355300486
H        11.20765595473720    3.80289708158465   15.63866637133941
C        10.59318418080942    2.19441460987944   16.94357831410981
H         9.67707549367412    1.80016146817443   17.39019467965797
H        11.02951140021371    1.40728096112591   16.32433243332785
C        11.56120217323180    2.57947380948718   18.06139893923198
H        11.77872687985306    1.70499097511460   18.67835534072549
H        12.50026572243854    2.92367771058389   17.62312726919475
C        10.96839513107084    3.69125016585625   18.92326091210753
H        10.05285340669545    3.33119915990992   19.39966020513749
H        11.67150591395589    3.95955972717452   19.71367868370152
C        10.65041079347233    4.91991503602469   18.07450071475552
H        11.57309398316612    5.31325519550818   17.64390756464323
H        10.21138318265514    5.70068597494912   18.69840973247853
C         9.69108678130744    4.55405132775163   16.94710373801771
H         9.51551893220173    5.42963953342201   16.30210328601895
H         8.73077292241186    4.24007376120558   17.37055376534092
C         4.68008885705083    4.85285020224405   13.91106324463952
C         3.84512368786217    4.38509151724693   12.87952017611758
C         2.48011460907603    4.58170880936478   13.01538514865941
H         1.81766649736775    4.20188946935540   12.25895923928480
C         1.92323792093378    5.24485029495563   14.09937429231177
C         2.78753293517251    5.79758146730879   15.02836044880762
H         2.37159683249743    6.36108727826854   15.84089818758656
C         4.16724955482588    5.64539476204290   14.95449415799832
C         5.68250508839101    4.30825502865080   11.13333635835182
H         6.56122505075515    3.85635764155113   11.60382428785825
H         5.79594270501807    4.15196285535125   10.06241768361007
H         5.70668639583582    5.38172484382346   11.31789497857093
C         4.57583117104859    2.19119201094908   11.92796646978479
H         5.31901139515102    2.05558042760251   12.71147394314015
H         3.64354374200101    1.73675868759674   12.25798108696998
H         4.91565621676359    1.67434695456000   11.03287489923567
C         3.36478956860052    3.78814730737699   10.46477685325244
H         2.46878676171093    3.19866533986139   10.64318891177300
H         3.08562269514492    4.82427595809084   10.28996870724584
H         3.82232960270729    3.40097061742712    9.55704481806235
C         4.36877403957517    3.68220508165233   11.62511463956213
C        -0.04098315820349    6.10360138052256   15.46596926976567
H        -1.12813464429043    6.13722977446637   15.49459793787463
H         0.30164055661424    5.58712473256435   16.35989243312251
H         0.32413335714275    7.12777122718353   15.48042949803824
C        -0.10378157594800    6.15725173530701   12.98391917797837
H         0.12012874393737    5.64251512686063   12.05383219326631
H        -1.18197415139256    6.28515908579229   13.05102433136599
H         0.35946767384016    7.14088832498766   12.94849805305821
C        -0.20805840946332    3.96784904206202   14.21360956185512
H         0.02524214934301    3.41939732593362   13.30538298408122
H         0.16901401424462    3.39966304453020   15.06159004380478
H        -1.29025202396152    4.03733801392502   14.29875479209680
C         0.41125269754097    5.37270370124845   14.19874391368075
C         4.28669916099294    7.55453440071662   16.61671787270212
H         3.45958180884566    7.24233592016498   17.24947759855976
H         4.97043025106831    8.11745106323469   17.24831327017327
H         3.91531156341668    8.21849927465876   15.84006007918479
C         5.35833969937005    5.38578238054175   17.14689195099945
H         4.44267153847602    4.98737600392724   17.57996075461891
H         5.96107927106342    4.55358704300920   16.78987677077233
H         5.91176946303378    5.90683457541554   17.92544453320403
C         6.33357763669280    6.91487697787852   15.39481525172554
H         7.18346898634548    6.22411591927772   15.51057345296839
H         6.20628357576279    7.15680017842171   14.33841504019911
H         6.61993091669484    7.83319649436677   15.90437747304855
C         5.03328629690738    6.35664662257789   16.00201025600687

