98
CSD_code = IKEGOU | q = 0 | S = 0 | Stoichiometry = C45H46Cl2IrN2OP | MND = 8
C         0.10041173871830    8.96685240240349    4.83949692411341
C        -0.03288918248873    8.38010845386477    6.11553935638582
C         1.27847902481092    7.98619940286621    6.56771539368022
C         2.23222008073312    8.43120429044606    5.59739684056848
C         1.50685481605488    8.98468409833610    4.50308394101925
C        -0.95790585796025    9.61500386342169    4.00845300092412
H        -0.87361577681507    9.29515782614517    2.97082584478891
H        -0.84515786678520   10.70040825906645    4.04102565970443
H        -1.95169256610363    9.35538890511573    4.36372494654881
C        -1.27265062372306    8.23105155525287    6.93162041700127
H        -1.48554134844602    7.17702787486280    7.11235470658738
H        -2.12983864330237    8.66873538333756    6.42730361104446
H        -1.14114460141425    8.72238083462374    7.89622554165307
C         1.56936529987054    7.49510843316489    7.94794654440072
H         2.55479435993391    7.03963710680663    8.00952977599267
H         0.83051303281332    6.75698631444820    8.25211310472602
H         1.53007365871002    8.32785709201208    8.65344282723310
C         3.71698736558234    8.44734742756526    5.76575574102664
H         4.03713423499491    7.68208452174173    6.46904666380104
H         4.02755126811521    9.41927724278923    6.15407069988019
H         4.22644772822737    8.28035345486723    4.81840754144083
C         2.06544223517876    9.71188957276169    3.32314549975466
H         1.59963311765918    9.36268481647647    2.40216041185619
H         3.14169114694316    9.57748366987935    3.24759866321561
H         1.85609428054657   10.77873678091312    3.41890560757269
C         3.00394245460381    4.70393888826053    6.06004033015678
C         2.21602772726786    4.23444901275938    7.10852237587437
H         1.15872877927078    4.08153644481746    6.94866068090941
C         2.77780924027105    4.00901621337442    8.35234621582074
H         2.16569589953200    3.62155416375911    9.15312657665016
C         4.11423098712167    4.29346100758313    8.57762309001508
H         4.55187410617436    4.11795903082914    9.54863774296610
C         4.88365546012216    4.83036642230697    7.55922048849698
H         5.91443634261454    5.09455984563804    7.74435880342274
C         4.33464940392538    5.03349096208779    6.30651139876979
H         4.93887183590473    5.45036313580066    5.51259909308231
C         1.51964575976531    3.48763239909465    3.79886788705449
C         1.28543291865724    3.44591171698848    2.42575409457771
H         1.54739636833802    4.29723810235739    1.81342348152123
C         0.69785021696703    2.33187481370415    1.85563506718511
H         0.51641079491661    2.30835329543133    0.79133148581140
C         0.33293217667005    1.25619737457987    2.64751982394378
H        -0.13397230303520    0.39041146360796    2.20192077222002
C         0.57299609024361    1.29360721592839    4.01011796693124
H         0.29260833702351    0.46061049428466    4.63565537418984
C         1.17137046583105    2.39765087302977    4.58779548066761
H         1.36699960594786    2.39785313208188    5.64820992239787
C         3.67244713329375    5.23279827813654    3.31014365467543
C         3.74418444377576    6.41255159875790    2.57635328544521
H         2.94742869642955    7.13324508694564    2.68243883416597
C         4.78991337128584    6.64908286807926    1.70335079517558
H         4.82658285475024    7.56865193907704    1.13869517872870
C         5.78473266440633    5.69775528498112    1.55567866208849
H         6.60999404421409    5.87152422723913    0.88116549108283
C         5.71355270091493    4.51362266288997    2.26748150500463
H         6.48502667589295    3.76688436472051    2.14730582238981
C         4.66325198196649    4.25864188960319    3.14163898283481
C         4.63211488338595    2.94811635546735    3.87803733121692
H         3.79023291604341    2.95030061780761    4.58602238046969
C         5.83651719201970    1.95083280080972    5.72968709006799
C         6.66755389450812    2.25497789709871    6.80610353336334
H         7.33646620297552    3.10128563838938    6.70763930569844
C         6.66114848731303    1.53252046485946    7.98324706935428
C         5.78119315100895    0.44888045573647    8.10830825734792
C         4.99470256557293    0.11065925165708    7.02820258343350
H         4.33309478149389   -0.74044316405452    7.07624253909894
C         5.00230819704117    0.81522947513609    5.81636988249939
C         7.56712039013532    1.91851433423237    9.11197127122062
H         8.22821437933394    1.09228137838388    9.37168292801443
H         6.98775211801894    2.16760424266034   10.00079364716098
H         8.17751210181535    2.77745380063187    8.84367015139775
C         5.71395822765879   -0.34089819218812    9.38100068153423
H         4.97832648362275   -1.13599828374898    9.29587539737078
H         5.43712585867014    0.29918061160717   10.21868286861265
H         6.68124004206561   -0.78737165623094    9.61105091832711
C         3.97999279764503    0.52921400215521    3.64224717957348
C         4.40127811407539    1.78409857913652    2.90338464052661
H         3.61882955863541    2.06663490438763    2.19681998017026
H         5.32455531520467    1.59585450517591    2.35145362404212
C         3.17334538331640   -0.43273530026326    2.87731487159818
C         3.20257188675839   -0.44600141274436    1.48275735236669
H         3.83612915527533    0.25240391969558    0.95953696013666
C         2.46087450658097   -1.34465743378057    0.74103499444822
H         2.51132668144057   -1.32566628195038   -0.33697406544512
C         1.65701785830826   -2.26777192306522    1.38544064964371
H         1.06800732715522   -2.97396985917813    0.81965773356977
C         1.61389285233441   -2.28347212289097    2.76610110191995
H         0.98762472853948   -3.00464267540230    3.27758390961317
C         2.36242555904258   -1.38761519604047    3.52244207643431
N         5.87082352259085    2.74668891319991    4.60335296052010
H         6.44014353249177    3.57554280248458    4.70561741372100
N         4.23273090371882    0.22693314351637    4.84938208789622
O         2.28610047904323   -1.41427197002864    4.87118915269230
H         1.67908411350027   -2.11558958483579    5.14422108706454
P         2.24432513275900    5.03631336571899    4.43781674593149
Cl       -0.60754925340510    5.15725072768647    5.39937597144365
Cl        0.25680904839797    6.56109742944030    2.42971830884618
Ir        0.86611476699626    6.86129164740531    4.69381779790960

