90
CSD_code = IKEHIQ | q = 0 | S = 0 | Stoichiometry = C41H43Cl2FeN3 | MND = 5
Fe       15.95703766543816    7.18540228317861   12.73540867444258
Cl       16.65975183536505    9.17741573472066   12.69882836939803
Cl       14.46093750633302    7.14334796126653   14.17280561972361
N        17.10407362697111    6.71516742739507   11.47520748626096
N        17.40601661740867    6.49642442388764   13.89859007746723
N        14.75791357674635    7.36208610077089   11.16394691719246
C        13.35583009984993    7.48807797697255   11.22514678573377
C        12.60358646197701    6.31044923322492   11.31059670277805
C        13.29584752085253    4.97994133400996   11.31851840089989
H        12.60329299755357    4.19105647401915   11.59916794317661
H        14.12097895990124    4.99733085622157   12.03599420332865
H        13.70968848899526    4.74654439747808   10.33677543905318
C        11.22656022004723    6.39949605302568   11.40715250431554
H        10.64343671035052    5.49212643067075   11.47648746212673
C        10.58317660638522    7.62882345918477   11.42596415791947
C         9.09133916988979    7.70209301710119   11.55081951144408
H         8.71907763704139    8.66969057497306   11.22325913373527
H         8.79982638097432    7.56059595201646   12.59183358530745
H         8.61424149818132    6.92151574978580   10.96133799180872
C        11.34926286698017    8.78268766619583   11.35959566192131
H        10.84868318248506    9.73755714564863   11.39032942377659
C        12.73236144112451    8.73934949954221   11.26721175122201
C        13.58672468919295    9.98106696577759   11.19048348864016
H        14.45289867090134    9.81870975639367   11.83818949635665
C        12.88700885592035   11.25508932576529   11.66864165298080
H        13.61592799459727   12.06050723903416   11.72066991260803
H        12.46660125247782   11.10593423760011   12.66011192328362
H        12.09839955124910   11.55954716219200   10.98375309539054
C        14.08930824738829   10.18212970706552    9.77872786202021
C        13.20292610210561   10.17782588824571    8.70825196431576
H        12.15056346503011   10.00627352456567    8.88679912421092
C        13.65628474260459   10.38306580030326    7.41748642662399
H        12.95688902970261   10.37924644808129    6.59350297017386
C        15.00490687008614   10.59258508076580    7.18045901288556
H        15.35956487643469   10.75222009087510    6.17211819976723
C        15.89418555694276   10.59819116223107    8.24226975253466
H        16.94749382328093   10.76162253088354    8.06440542382764
C        15.43946251991469   10.39667385563567    9.53431732215623
H        16.13500201901488   10.39811213065677   10.36012966642468
C        15.36506263741270    7.15252246276650   10.02970613472244
C        14.69414340732743    7.12011771819077    8.69410539982876
H        13.62556547966735    7.28808180784547    8.79740874353944
H        14.86338139829799    6.15628666022157    8.21477219169773
H        15.10846621855550    7.89647745733055    8.05316424261549
C        16.75930721686782    6.83309256558779   10.16501797919127
C        17.68946194725869    6.60068291704013    9.15793161165118
H        17.40400461408866    6.71804220301877    8.12533321792593
C        18.98336779869830    6.23658799372313    9.50342341537717
H        19.72132890908560    6.06809107347361    8.73500211774861
C        19.32404234620915    6.08676836664959   10.84035113365004
H        20.32231236076463    5.80076243098654   11.12887819518798
C        18.36232922881167    6.32679511524932   11.81568823378177
C        18.47740747763177    6.15750202452724   13.23761089391548
C        19.69453508772209    5.53661661720341   13.84422736831899
H        19.55516566234515    5.38241842867851   14.91081747922080
H        20.55340994126280    6.18955608103917   13.69660223795420
H        19.90628635600597    4.58101721599286   13.36546950249256
C        17.26393257648512    6.18356998149470   15.26490801051644
C        16.78578214440904    4.90807099020377   15.58593978355760
C        16.46399138303907    3.93293657069361   14.49262654871654
H        15.85600516317900    4.42332621597533   13.72705614785269
H        15.91294216621570    3.08410835527223   14.88798383193387
H        17.37224806863053    3.56518215753186   14.01387630350537
C        16.59753689762086    4.57601794617323   16.91639760777669
H        16.22591947075282    3.59198712343245   17.16491671460558
C        16.86671171963022    5.48334163618907   17.92955654207287
C        16.64019269741052    5.12295509358885   19.36664440095903
H        16.63846769650945    4.04417324295293   19.50264513040646
H        15.67540881467025    5.50846339934421   19.69700018042672
H        17.40885105400583    5.55823012425523   20.00190575963909
C        17.32054571117725    6.74943311528169   17.58740412361588
H        17.51315999753905    7.45794357598032   18.37752618798931
C        17.51917403527275    7.12481027070945   16.26814469533014
C        18.01864026797712    8.49265551086096   15.87274462608258
H        17.43993663010882    8.81013876613900   15.00072464548355
C        17.84430464628618    9.56040758092640   16.95487801989599
H        16.81412705101144    9.58142089130861   17.30200851216118
H        18.08682117652553   10.53350484184546   16.53401687814090
H        18.50701360182390    9.38515344759547   17.79982013768246
C        19.47359576065752    8.41902098098197   15.46795343125168
C        19.90232061520726    8.98085120306326   14.27254424850411
H        19.18336462971902    9.45222752573675   13.61934503302311
C        21.23869864140173    8.93012295362448   13.91426430834134
H        21.56023515174798    9.36970129248182   12.98092304681414
C        22.16221749205312    8.32105893749157   14.74742678009411
H        23.20569741571553    8.28341063000395   14.46868912977262
C        21.74186486973940    7.76099651451273   15.94250556150384
H        22.45760481660851    7.28511511256137   16.59776644949030
C        20.40609589273481    7.80947980060927   16.29884939154682
H        20.08204431937914    7.36408441438385   17.22910263487535

