38
CSD_code = IKEKIU | q = 0 | S = 0 | Stoichiometry = C15H14ClN2O5Re | MND = 6
C        -1.75275542698131    0.45918658190405    8.90708448678927
C        -0.20020874193513   -1.09027345818405   10.68500513455618
C        -0.96774831396313    1.48420579272860   11.45330755256965
C        -0.77588157692040    3.61448209149587    8.86192655130724
H        -1.76238191729341    3.27535502743620    9.15178760118799
C        -0.60731920423624    4.89889346301696    8.38531740043201
H        -1.46461559546758    5.54777349661956    8.31612696445766
C         0.67055838201151    5.32077794463246    8.01302196680727
C         1.71049409205432    4.39576731240628    8.14880982734401
H         2.71332082090056    4.68148630665281    7.87791075431522
C         1.43978009544703    3.13976211056639    8.64095802046025
H         2.24704912154863    2.43385007927059    8.78784168701021
C        -0.02580151770246    7.50820574785475    7.41271728058686
H        -0.79828906027204    7.19263360295391    6.70541685582457
H         0.46906823546251    8.40012681294793    7.03330222908484
H        -0.48290721791519    7.73065127826544    8.38094033910262
C         0.92725105672117    0.38817718123361    6.93527251335982
H         0.04472248494043    0.98938622008213    6.75549569215996
C         1.77551858424497    0.09250897567910    5.89464602205471
H         1.58549011626165    0.45795529596064    4.89914137760970
C         2.90486359750441   -0.70126330854235    6.13223365212556
C         3.09650639783442   -1.15843420768420    7.43525850771377
H         3.93315188735627   -1.78148222064224    7.70454456543892
C         2.18891127934597   -0.79881572029657    8.41285943440986
H         2.34168761398570   -1.13231713239888    9.43054316040853
C         4.84371136882256   -1.76482451342434    5.27470176301954
H         5.53561315883100   -1.31254077462677    5.99076912891782
H         5.32348546877708   -1.83038756329996    4.30011063311133
H         4.56891233336642   -2.76789347986139    5.61284016426172
Cl        1.98947082854335    1.07426669445227   10.91470848959129
N         0.21800688204677    2.73692314007884    8.99548758622343
N         1.12264085860078   -0.03447286832655    8.18779788973414
O        -2.72518917247935    0.34027729825081    8.29944306878518
O        -0.17690297340037   -2.13440988500433   11.15673269185737
O        -1.39206762671192    1.99929621761144   12.38448431763050
O         0.98874388735966    6.53407682842250    7.53491220105620
O         3.70153242877151   -0.95694575802365    5.08239303382608
Re       -0.10612263545429    0.68633538979445    9.90264945486542

