68
CSD_code = IKEKIT | q = 1 | S = 0 | Stoichiometry = C25H40OPRu(1+) | MND = 9
Ru        4.85530157096846    0.06963642306928    3.35874293136582
H         3.37215163357485   -0.08167719221251    3.62291888954287
P         4.66873176010890    1.86308374813986    4.90146190962222
O         4.09876502864658    1.87978371955506    1.11651508267014
C         5.69111894022509   -1.74316042472938    4.50854470896983
H         5.52478684381400   -2.16746509792126    5.49315814105927
C         4.96691036714807   -2.22935506042178    3.40230881705326
H         4.21551671453916   -2.99858287121619    3.54582512042261
C         5.28223294198985   -1.79355676492744    2.10353740902122
H         4.77882355518415   -2.22708812972092    1.24636651497438
C         6.32758710460774   -0.86322420517083    1.91403770637051
H         6.62204463423918   -0.58906334435924    0.90572813838155
C         7.07627181249043   -0.39726865009052    3.00983047478584
H         7.95546488582443    0.21387078348465    2.84160265802247
C         6.74233417260161   -0.82485232136694    4.30806231516313
H         7.37472766721906   -0.55174491566885    5.14785899200616
C         4.35037053569355    1.24012716426771    2.02966329461285
C         3.16701286762555    2.92096556835625    4.54694078576844
H         3.18236750123136    2.98940904617319    3.44788902910264
C         3.15982092378382    4.34481581497360    5.11211663432989
H         3.08903463501500    4.32330220710032    6.19962706180075
H         4.06299269977398    4.88805672464045    4.83577842443227
C         1.95755066480674    5.10371253892657    4.54456923992542
H         1.94699768715119    6.11464215230971    4.95413642195597
H         2.06286317605433    5.18323608114155    3.46080553142259
C         0.64826565456783    4.39600795511898    4.87336029191409
H         0.50150334248113    4.38302353662254    5.95531584842886
H        -0.18560157822395    4.94131766611498    4.43162543201818
C         0.67434258806866    2.96563332956527    4.34526977157543
H         0.75076379724426    2.97442394054439    3.25669387117080
H        -0.24939094719304    2.45149786071493    4.61236642721244
C         1.86616298256176    2.21428586063508    4.93398182807900
H         1.87999123438172    1.18511614056492    4.56500576453710
H         1.76220763442820    2.20259665435705    6.01915521739514
C         4.67966595678751    1.23699106272706    6.65125633056430
H         5.68743414481558    0.80517908626275    6.75513840504195
C         3.67665611594511    0.10856792298798    6.89534189872790
H         3.73075901265685   -0.63114730192900    6.09068589450804
H         2.66215640783496    0.50191260236233    6.90659290557853
C         3.96349756069274   -0.53217834948766    8.25209870478836
H         3.25914987591424   -1.34516125650678    8.43221951559542
H         4.97200821624951   -0.95355730125143    8.26198193404114
C         3.83931420323171    0.51444411466203    9.35664928669942
H         4.07215995090889    0.06409872360307   10.32182967813332
H         2.80940103659761    0.87366200783895    9.39727360303688
C         4.77722955464277    1.69062629934849    9.09871314334955
H         4.64067637045410    2.44768395862488    9.87173749042956
H         5.81371035385969    1.34883339352278    9.14943929441285
C         4.51134380031075    2.31203151494101    7.72641327037999
H         5.19751338215588    3.14455088233882    7.56255346254180
H         3.49158868981600    2.69684012309981    7.70334209406960
C         6.07598009825997    3.07780420598228    4.82266845714308
H         5.77596329417263    3.92397737626363    5.45131667130368
C         7.41110905543910    2.55603747615802    5.35152145009565
H         7.31627956637860    2.22608879916934    6.38737962865957
H         7.74642333960239    1.71338040136218    4.74539953019284
C         8.46515739833080    3.66115435764510    5.27522912453098
H         8.16097810642461    4.49653154947236    5.90849957305427
H         9.41546491424864    3.28445868637322    5.65648757468758
C         8.63428448754280    4.14751995498089    3.83992885652451
H         9.00232959723094    3.32978151978794    3.21599095275735
H         9.37382143313828    4.94737965175497    3.80607386697394
C         7.30315889243054    4.64928647570530    3.29112569639250
H         7.42008976799299    4.96277352311642    2.25330193943748
H         6.97868016935653    5.51834956308452    3.86670466574847
C         6.23771055733141    3.55831441475387    3.37850890056558
H         5.29019607758478    3.94151279514961    2.99507626312022
H         6.53108357902165    2.70966582752671    2.74981925180245

