52
CSD_code = IKENOC | q = 0 | S = 0 | Stoichiometry = C23H23ClNOPPdS | MND = 4
Pd       12.94030593893868   13.59793199902457    4.63572112392030
Cl       11.90173592895956   14.58507946457697    2.81339381813942
P        11.21490952369244   12.16112471777396    6.34755189210152
S        11.22098928929775   11.95779496400011    4.37593159862157
O        12.30579959197373   11.26026969860362    7.09607658894518
N        14.70685719040853   14.73360604708361    4.67547538744568
C        13.65902578078476   11.50928213061575    6.83607419554777
C        14.00720786336370   12.54437787822287    5.98240676724340
C        15.38199169468502   12.82608412845169    5.86265296149879
C        16.34483545621910   12.05346373638530    6.51603539474115
H        17.39342683292425   12.28332495279302    6.39401570368674
C        15.94762813036798   11.00023327849641    7.31512434393597
H        16.68213475563270   10.38931289122595    7.81706472726517
C        14.59698592488179   10.73623375035172    7.50042464418538
H        14.26696627232289    9.94268583509901    8.15363420061384
C         9.71183479128558   11.43736300821059    7.04888403948494
C         8.55707388754062   12.20976934929462    7.02719957921955
H         8.60421752927014   13.22524213285835    6.65701135377993
C         7.36475474413998   11.67506135982999    7.47768809129889
H         6.46579814968038   12.27275539169056    7.46397610629671
C         7.32519359762242   10.36944168799165    7.94180086764309
H         6.39321259382312    9.95100329397045    8.29147319130536
C         8.47542815945704    9.59732516673366    7.95280369879894
H         8.43929170684840    8.57866055525934    8.30933679326502
C         9.67144355540893   10.12621741194142    7.50121056449333
H        10.57279037818266    9.53226443970605    7.50020210671504
C        11.31774567198051   13.85720028345317    7.03602215019145
C        11.71470934684264   14.02152152136251    8.35699964277955
H        11.94101669481235   13.15350049629153    8.96069962370652
C        11.82378935105018   15.29760245701924    8.88306575007400
H        12.14519447713311   15.43012079611365    9.90539380639997
C        11.52065737876879   16.39856691632427    8.09963849166157
H        11.60833101066980   17.39217970083057    8.51328223062953
C        11.09515769885618   16.23209727432620    6.78911521495969
H        10.83880594410232   17.09176658553073    6.18875383752921
C        10.99479709768416   14.96221421658296    6.24389744694045
H        10.62006155622717   14.82740695704258    5.22836862611529
C        15.67648024128134   14.04047710474441    5.14604572657414
H        16.70983386318732   14.38045214800560    5.10215976956007
C        14.91964137267869   16.05351505692089    4.09507511158206
C        13.70492061475575   16.89759600086394    4.49519863150181
H        12.79400278784726   16.40557401763381    4.15123417995404
H        13.76346590501020   17.88165370297358    4.03854560565222
H        13.67082755435331   17.00843705306265    5.57911556937781
C        14.99874535191732   15.90004643560275    2.57145761740801
H        14.08379016339709   15.44322031822587    2.19940751724774
H        15.84544761104664   15.27164061050012    2.29926356036210
H        15.11763468998329   16.87491001740872    2.10697998775893
C        16.19289706817647   16.74012615885892    4.61060536521516
H        17.09422038150714   16.29237256170066    4.19790520893631
H        16.23893112947435   16.70419428000556    5.69796104007922
H        16.17365576952593   17.78219805843247    4.30293854759696

