55
CSD_code = IKEQUM | q = 0 | S = 0 | Stoichiometry = C19H30ClIrN2O2 | MND = 6
C         2.91970185890463    7.73193713553619    6.59260203040905
C         2.66629852658338    5.78534593139488    7.74318624304145
C         3.78462242141448    6.58380054846697    8.35642715308690
C         1.29294991006602    5.91953764406871    5.70017466768622
C        -0.01236495297391    5.60780318838870    6.43827866911447
H        -0.47028987337628    6.52112594087400    6.81054383525822
H         0.16329625274555    4.93628523463519    7.27277728689346
H        -0.70709086534254    5.13010258395674    5.75318336307352
C         1.93862139416997    4.62890810343477    5.17966831761963
H         1.28300102263742    4.16260507766195    4.44988426483446
H         2.11089011201591    3.92171282096454    5.98519034770064
H         2.88684986307866    4.85613572696228    4.69722110061586
C         0.99136468229830    6.81347248658408    4.50532802954809
H         0.48952481443648    7.72744628577399    4.81032714863456
H         0.32778888712003    6.27560085651892    3.83271664089085
H         1.89715673320461    7.05836599631280    3.95961419240751
C         5.07397814216310    8.59656086996759    7.75131728511515
C         5.14542666157278    9.71978768781369    6.72622482142869
H         5.22167751776265    9.32448870216771    5.71830725844938
H         6.03563898215238   10.31107680128726    6.92593474179801
H         4.28418045587435   10.37961837873372    6.78839014261941
C         5.01509700561036    9.19447680011643    9.16019156718565
H         4.13857350735799    9.82733344780172    9.27518981619808
H         5.90070647653863    9.80044171191393    9.32982345933620
H         4.98660052613022    8.41215970235247    9.91230904782754
C         6.33057682379516    7.73037210320236    7.59095705245862
H         6.38062922966339    6.96194469246246    8.35621732908971
H         7.21528557559561    8.35498654090686    7.67471136437925
H         6.33369900124789    7.25705710495333    6.61142435945713
C         1.87118833339989   11.47664611565495    5.12749723455069
H         2.76244906780472   11.76033095120602    4.57469319967047
C         0.94810889711132   10.68164956067359    4.49359644665564
H         1.13828986099895   10.39831640140861    3.46184958210653
C        -0.49197373063831   10.52862693904047    4.91616762137190
H        -1.03922331557256   11.43958454370557    4.65230798819491
H        -0.93225748847741    9.71521271754239    4.33653036023633
C        -0.66596602253480   10.23073635808408    6.41781845505677
H        -0.82286349122669   11.15773856746418    6.97174207522251
H        -1.56370093326199    9.62415856908122    6.55035111059670
C         0.51475732669495    9.49982399457704    7.02352645963320
H         0.26928515600524    8.52273402574867    7.43172683680206
C         1.60311525629932   10.15777072738598    7.60741193846119
H         2.08952635400052    9.65033800981314    8.43816900430712
C         1.76870236128654   11.65845543496541    7.66115771111435
H         1.08384318687040   12.06463398018465    8.41350988836824
H         2.78172370218608   11.87618750929001    8.00612471050411
C         1.53703618558622   12.35745106748241    6.30882906926696
H         0.49842805803743   12.68039136290639    6.22413406497910
H         2.15713826037435   13.25446163998672    6.26804045453654
N         2.25176644040920    6.52699562088737    6.65545601662676
N         3.90547104088331    7.70258203410047    7.55716606396603
O         2.23880560381744    4.72157442641601    8.12553649191294
O         4.43323252961287    6.29422241305262    9.33409345008553
Cl        3.53895315814032    9.05939288453163    3.79102122168070
Ir        2.23857350974127    9.35729403959761    5.70012100793391

