66
CSD_code = IKERUM | q = 0 | S = 0 | Stoichiometry = C27H36NOY | MND = 15
Y         4.95357327083771    4.06369087010591   16.76334834498635
N         3.39378460286035    2.66061177324971   17.44475299600208
O         5.96329960491249    4.19782243898231   14.18047767910917
C         3.36013573328844    1.85259256826113   16.36844010685330
C         3.52618625462063    2.48302641295787   15.12940640196204
H         3.15136303909626    3.51730304451582   15.06554480477595
C         3.81205577108131    1.85598209007879   13.86239716307054
C         3.26077496492382    2.37163368501285   12.67905866354728
H         2.57480652978323    3.20713645682714   12.74117897591705
C         3.55146093082234    1.81733833719724   11.44976474412420
H         3.10763871876115    2.23214006034393   10.55521931225482
C         4.40703502176164    0.72985596933583   11.35562089782634
H         4.63715791150602    0.29764903160283   10.39319516963867
C         4.96651535117207    0.20658887782093   12.51162352673750
H         5.64281580931613   -0.63446952525792   12.44720791825354
C         4.67942293175141    0.75799439263940   13.74391008666054
H         5.15073063874290    0.35868649121358   14.63087123338686
C         2.77849798696415    2.31640553382513   18.73719261876921
C         3.27921128241219    1.00697513130780   19.37290293179969
H         2.73735566171251    0.13795471990633   19.01504298981322
H         3.14561310401483    1.05464467914034   20.45133838599038
H         4.33773447033172    0.87946930612922   19.16623514539095
C         3.12658132371533    3.46231060436405   19.70136781645385
H         2.73697964018319    4.40476646084072   19.32259183673403
H         4.20872516280750    3.53675054995232   19.81834452203166
H         2.68255260766471    3.27998272562126   20.67794046088581
C         1.24764432113999    2.29147003850455   18.57995943490160
H         0.90168697733936    3.24718721734049   18.19080934318688
H         0.77900238120959    2.11577757173066   19.54543927868506
H         0.92442484528945    1.51407197991051   17.89354283023763
C         3.10380407420767    0.36581162582547   16.41062500646047
H         2.18989638296520    0.15116056710046   16.95681738528891
H         3.92322583299410   -0.15784095491937   16.89826123519164
H         2.98825152025352   -0.01891939534766   15.40098063326689
C         6.68931289337181    1.33465601867995   18.05942448012757
H         6.54013366930561    0.27330433414873   18.17259093180999
C         7.05906503714268    1.97397423063135   16.88810197012556
H         7.32132266299213    1.48513174368653   15.96217287938276
C         7.16072140976066    3.37850936132403   17.14640315623591
H         7.82946816348933    4.04577531392197   16.60243228966931
C         6.86532197654355    3.54264928729054   18.55526185814902
H         7.05969287627431    4.43908912150304   19.13296564855455
C         6.58169646954166    2.28707735419191   19.08276934434452
H         6.34730698792347    2.07680149860881   20.11336050861854
C         4.50285419573362    6.34523252079052   18.23144982972586
H         4.35749241742750    6.38917659191984   19.30095332525499
C         5.70548787658535    6.62257086828574   17.55950337012767
H         6.64044091183443    6.90009269436097   18.02394203487221
C         5.45220657300777    6.61308056212053   16.17583421725662
H         6.15372556500987    6.92322905403234   15.41426705190271
C         4.07827846557853    6.32670372571432   15.98336520507895
H         3.52750315020555    6.42868778370398   15.05585577113765
C         3.49126578500159    6.16131341011125   17.26489535512579
H         2.42848217575218    6.08921000834570   17.45879523106456
C         5.46720390954119    4.99768409032598   13.09644410629117
H         5.29796080950324    6.01130029926287   13.46098401062483
H         4.52049924770816    4.56982020186813   12.74395569441422
C         6.51662711853976    4.92933648958405   11.99426226711019
H         6.09625022255226    5.13655205949321   11.01362050163685
H         7.32607342252217    5.63325359372432   12.19266674556004
C         7.00539878619017    3.49413479127754   12.14923099743343
H         7.99753924537410    3.32985654844714   11.73607462980892
H         6.30377375910420    2.80359927651365   11.68057736911304
C         6.97989399340804    3.32017589320684   13.66554665763913
H         6.73678383018669    2.29561358912866   13.95324213011714
H         7.93957173248891    3.60854634762389   14.11154055146992

