102
CSD_code = IKEZAB | q = -1 | S = 0 | Stoichiometry = C40H59P2Pd(1-) | MND = 4
Pd       -2.33971183393103    9.31502578726953    9.36441706048511
P        -0.32398919915585    8.59046973142094   10.00877346456673
P        -4.02486692145022   10.45797220353672    8.42604788997160
C        -1.21072518890971   11.00698625321816    8.72992357964763
C         4.56693107250781   10.41627264155372    8.90285127654974
C         0.18719499174324   10.90001189962974    8.72441863314147
C         0.83969334215229    9.80309726045280    9.37888845390367
C         2.21466637833450    9.66254302308534    9.40235818874709
H         2.64154910436850    8.80138148505872    9.90006710254179
C         2.43764286084383   11.59844995120505    8.05051712829883
H         3.03891195568056   12.28536545343030    7.47038374633128
C         3.05980654839191   10.58118466974973    8.79129266306748
C         1.07865223034588   11.74664699824001    8.00094782154317
H         0.66393937241173   12.49803116672711    7.34497490954859
C         5.33445684538251   11.55762879560596    8.22921233344672
H         5.04268049025219   12.51821401675199    8.64800705069415
H         5.15072687350883   11.57078183495141    7.15722626617247
H         6.40537031879163   11.42728882962750    8.38701108775068
C        -3.42884348538826    7.50768254620729   10.15780441509812
H        -3.78983288781112    6.87068523003083    9.33530892966539
H        -2.63845825194112    6.97928256160211   10.70714825441676
C         4.96815113287777   10.39319769183040   10.38648002647566
H         4.64576851004383   11.31165473706223   10.87349466595497
H         6.04967634240248   10.30489523450327   10.49215848589019
H         4.50742691629889    9.55574717067298   10.90393671066516
C         4.99402983485584    9.09715313299909    8.24063202836605
H         4.51517686998508    8.24823421686595    8.72205510004895
H         6.07418394411631    8.96435768872404    8.30614043492244
H         4.70637264493964    9.09683649510155    7.19093147661593
C        -4.09402768311351   15.41511917963547    6.32432280667085
C        -1.92518355447177   12.13455011164359    8.29145903274036
C        -3.29834320595500   12.01658749802701    7.90946363460028
C        -3.40113385487216   14.27800507433162    7.05680079783456
C        -3.98155226174081   13.03534934267350    7.26801194123929
H        -4.98748354934894   12.84125951702512    6.92599547983191
C        -3.19627763256899   15.90373057605056    5.17727129714111
H        -2.24348542349935   16.26507369392186    5.55444174110880
H        -3.67816472548340   16.71393398615647    4.62938924990061
H        -2.99808325620788   15.08661237913332    4.48618791637781
C        -1.41864919678743   13.46496089609170    8.21120048177506
H        -0.46574760232516   13.69024105222725    8.66916102958339
C        -2.12595445035719   14.47269274523021    7.61697469681053
H        -1.67874530633503   15.45977799904353    7.58476452775955
C        -4.35298278608795   16.57482636923921    7.29846853960415
H        -4.99020353441848   16.24110911188698    8.11552480805449
H        -4.84589391652203   17.40335601745402    6.78939427675606
H        -3.42136392431032   16.93853817548407    7.72402877488499
C        -5.43715481998439   14.99308676203217    5.71996517071672
H        -6.14324583921147   14.70695306874883    6.49662712929662
H        -5.30674555402997   14.15690657307135    5.03624126012321
H        -5.86872338714616   15.82471453269328    5.16271044542716
C        -0.02053706633811    8.41205132603043   11.84210729093604
H        -0.69953186522546    7.61823021247059   12.18279363682214
C         0.27050605914213    7.03980981048235    9.15453230825837
H         1.36816962136547    7.05864513032559    9.13549938278607
C        -0.48666573253792    9.74893225531582   12.41622335182345
H        -0.58723765960633    9.71260709476945   13.50128174848703
H         0.22547723445447   10.53087389214634   12.15285468856379
H        -1.45484958315935   10.02031287267121   11.97416300409932
C         1.39805655238173    8.07974947841453   12.28348137102083
H         1.42492334097629    7.91793729504474   13.36248638528296
H         2.06685244219929    8.90428952628505   12.04882525728035
H         1.76575110639591    7.17841468669146   11.79532346274116
C        -0.19931238940945    5.72491279062657    9.76334802468766
H         0.10090498940649    5.63972629810748   10.80649934405320
H         0.23101659990336    4.88502381898230    9.21477120519588
H        -1.28207079605697    5.64760167127632    9.70656466712277
C        -0.26623724166845    7.21431338966746    7.73337130810642
H        -1.35834311635998    7.35129194108471    7.77810345085292
H        -0.03955752449634    6.35206081587573    7.10516303248785
H         0.16663063867377    8.10783985975630    7.27995001852963
C        -5.85988406876134    8.70130043985023    7.22117335955767
H        -5.28472470506830    7.90096455889626    7.68346245134825
H        -6.31646245830775    8.31924211828302    6.30624589545404
H        -6.65205868973594    8.99835367554243    7.90605840629988
C        -3.81828631926778    9.45520104667684    5.95920153130609
H        -3.15723989176980    8.74300714371475    6.46861575369654
H        -4.21138714215978    8.99061904499792    5.05421276958853
H        -3.22007618954883   10.32309691321921    5.68244373331635
C        -4.42102755968345   11.46056557355639   10.87657153773969
H        -3.97469061375795   12.42248330766653   10.62077377631243
H        -3.60602858586340   10.74361347407407   11.06839492717175
H        -5.01010206853590   11.56943387189627   11.78668473924585
C        -6.32457550811841   11.97428857424840    9.30350078564193
H        -7.01892230624997   12.14143927868925   10.12802945889633
H        -6.89581454324726   11.63062217621386    8.44221122464319
H        -5.85204245086347   12.92281587017304    9.05661686725642
C        -4.49575625758651    7.85898335011513   11.07756020407637
C        -5.85832471949097    7.69673908199585   10.76838472282661
H        -6.13380470793431    7.27848743567467    9.80867788782975
C        -6.85090349744886    8.04828054512377   11.65919673846276
H        -7.89082904489176    7.91110377417486   11.38402544468699
C        -6.53297685242072    8.56325446250939   12.90630231623053
H        -7.31331117131311    8.83979577185199   13.60329278777960
C        -5.19486605716615    8.70299705841622   13.24998386133694
H        -4.93064542069616    9.08864314097623   14.22788324550155
C        -4.20256642131053    8.35206059062975   12.36383198304551
H        -3.16318803546271    8.46034815301117   12.65104816345144
C        -5.27570918637017   10.95109058795799    9.71580745847377
H        -5.77339987661746   10.02526673976199   10.02795508622488
C        -4.93555551198842    9.86958938758256    6.91492012659752
H        -5.50872109519304   10.69852531773581    6.48207559396030

