111
CSD_code = IKEZEF | q = -1 | S = 0 | Stoichiometry = C45H62NP2Pd(1-) | MND = 4
Pd        4.91063628322010    1.85221764934654    5.38780699117605
C         6.71549488781914    1.80456080121142    8.01669996985561
P         4.80206995738682    3.32742940715839    3.68435109500689
C         7.30489240006236    1.60646240898076    9.25536199773605
H         6.97302572455194    0.76725598652991    9.84827360548145
P         5.33681814248204    0.85149768140320    7.37221688477058
C         8.29773093853002    2.44715251907280    9.73389380185041
C         8.10616273360589    3.72937578044690    7.67455387263706
H         8.37602226670263    4.61224673544666    7.11287188152303
C         7.16197504646043    2.82159680982672    7.11251318991067
C         6.65895209534540    2.90202925731701    5.80585801844151
C         8.97633481825890    2.26635567634545   11.08182035367534
C         8.65728990625804    3.46965618682186   11.98266212039191
H         9.00830021158542    4.39505456374413   11.53378906784659
H         9.13344086755162    3.35766256045053   12.95675983072880
H         7.58184741100576    3.55178950142032   12.12940566834507
C        10.49588603216330    2.17001039334835   10.87808933231545
H        10.73279224808664    1.32173124793487   10.23876976414116
H        11.00400826459933    2.03843515761588   11.83345616442734
H        10.88387058349233    3.06791878693336   10.40494835710127
C         8.51856401158773    0.99699109244135   11.80703977030908
H         7.45498764261687    1.03715625818245   12.03260189844609
H         9.05839676631348    0.89599768551075   12.74848999316418
H         8.71874496497285    0.11351592171004   11.20469199707367
C         6.51020646997691    3.86532756036187    3.54336210317158
C         7.26202041705333    3.56868462397857    4.72654830789515
C         8.96944631549202    5.56688940983334    1.19079833083581
C         9.17442070767251    4.53197003079992    3.54379007039533
H        10.23429717743806    4.74488443823523    3.55616458576290
C         8.40873058798991    4.86727509969614    2.41876057242098
C         7.06928496039431    4.49199151458233    2.44728382941963
H         6.44555510291193    4.67930052852552    1.58241860347615
C        10.44726599907923    5.93732440790945    1.34633297648517
H        11.05956678775274    5.04715208694857    1.47160506844879
H        10.59466487066616    6.59051062445540    2.20368940334395
H        10.79166469891838    6.46217708951747    0.45514103625939
C         8.18319922716368    6.86301787838671    0.93767384063902
H         8.57926250732574    7.38922040071386    0.06915508949542
H         8.25612755746271    7.51889538839566    1.80337024902257
H         7.13170834476793    6.65445270479490    0.75819886451313
C         8.83628435129803    4.64360798030515   -0.03011868490009
H         9.24167261240063    5.12322219309172   -0.92110152790176
H         7.79540118550352    4.39423393210303   -0.21915990417336
H         9.37922213318534    3.71644331200890    0.14304068243805
N         3.23660177506457    0.49482343223122    4.84866207295027
C         4.22952055286400    2.93116162714806    1.95696764091527
H         4.37182592549892    3.81618490275700    1.32425612785722
C         5.08597077126742    1.78916139739852    1.42155483390247
H         4.82711804167860    1.56363180811248    0.38636670371764
H         4.92357643927518    0.89293939331715    2.01952038378894
H         6.14332511846500    2.04841333845154    1.47019927011389
C         2.75480459864387    2.54304719417051    1.97756608122118
H         2.44067762790354    2.18121180830231    0.99810375362796
H         2.12545248126322    3.38984030627792    2.24792120616704
H         2.59549684655410    1.74826399826369    2.70541936309221
C         3.89844705876494    1.20031643061023    8.51862578415579
H         3.03507372029865    0.68088858387465    8.08219081161034
C         3.65755301934401    2.70459783911380    8.42409099987153
H         3.60206613740680    2.99017463127244    7.36596389875713
H         4.48204570095424    3.24770407232031    8.88777853441474
H         2.72467784979997    2.98611171187311    8.91184649403035
C         2.06656603275991    0.62594179994196    5.52003777326837
C         1.62708520310532    1.93442397373659    5.81267671519484
H         2.22722958808697    2.76064774582975    5.43229382515441
C         0.49123352010379    2.16410903401487    6.55176886466886
H         0.17758967403060    3.18080386844312    6.75604490656340
C        -0.25815985424274    1.10120353458569    7.03923898214022
H        -1.15203939302639    1.27961196085125    7.62168359320316
C         0.16596509436424   -0.19386123717996    6.78084751963349
H        -0.39823589027654   -1.03024755734813    7.17736249536033
C         1.29904968039506   -0.43865971432701    6.03564361671888
H         1.62991614300236   -1.45668884341248    5.88198675489082
C         3.58996352153303   -0.56658295572765    4.08884599281865
C         4.96369059561657   -0.75275006903839    3.79658573751426
H         5.68989697373064   -0.03584153071743    4.21708207246478
C         5.39165482277508   -1.78569783572742    2.99447795366606
H         6.44994325611444   -1.90816646362482    2.79881614527605
C         4.48018440938363   -2.66694268747114    2.42799511519598
H         4.81893995055123   -3.48191166153583    1.80310793934213
C         3.12608170598809   -2.46882326585814    2.65557645570773
H         2.40310309806817   -3.12699142906035    2.18770890894052
C         2.68052044502838   -1.44439794303660    3.46104273818792
H         1.61840720687687   -1.28644287821182    3.59029562481229
C         4.05746690337323    0.77166824525251    9.97197257475800
H         4.22192185350764   -0.30009704435081   10.06246613016016
H         3.14970923217691    1.01960109056547   10.52362835019510
H         4.88898376240665    1.29896808714304   10.43437594481134
C         5.77665433589710   -0.92613176449576    7.72203759857482
H         5.97162731777949   -1.01961418034217    8.79822746775369
C         7.05829219540694   -1.24442742333284    6.95820938865962
H         6.89238875099267   -1.12957380558334    5.88762647806570
H         7.38120539213886   -2.26816779790493    7.15019602995287
H         7.85396394222051   -0.56172472677482    7.25553013339395
C         4.64475505493985   -1.86378205813251    7.31989429546392
H         4.43194947537449   -1.75573857167081    6.25771967110883
H         3.73478808652794   -1.64337832859569    7.87571380277990
H         4.92275870348491   -2.90164798214589    7.50954398408024
C         3.87280641805887    4.90868972195679    4.09089733839428
H         2.81248799780541    4.64226716235114    4.19303328693433
C         4.39862340694119    5.38766575632128    5.44232273241505
H         5.41059814553696    5.77436088993411    5.32939963942558
H         4.44170234150243    4.55191390911489    6.14897073495285
H         3.76608862085728    6.17342667147142    5.85614288212413
C         4.01476579362445    6.00907760344029    3.04614832790161
H         3.53791687130770    5.73810972558813    2.10619068745058
H         5.06787810115601    6.21467062655511    2.86265325826584
H         3.54647497848874    6.92516936959126    3.40836034128672
C         8.63971512843055    3.91269651948630    4.64316073899198
H         9.29899137943236    3.62215659835602    5.44815259285973
C         8.63804962386693    3.54239504130934    8.91872281990867
H         9.34497051862742    4.27645707042957    9.28676995501283

