87
CSD_code = IKIBIN | q = 0 | S = 0 | Stoichiometry = C28H48B2N4NiO4 | MND = 4
Ni        6.53285500509249   -0.00003003883980   10.51475756480198
O         5.82655383880646    2.57660694166304    9.52645549199246
O         7.32935036043442   -0.73546793073819   13.14982579181565
N         6.22134183719357    1.83170183612297   10.55637674492977
N         6.94540598713964    0.22633410377241   12.31329590162055
C         4.36242062209598    2.88248886534561    7.41311168532024
C         3.64047483650566    1.23839679874969    9.28632613078814
C         7.09886861948379    1.81921404409339   14.16818546978226
C         6.23750802141478    3.85619103521772   11.93451014059636
C         3.60551460693753    4.00357770336034    8.14288299527723
C         6.41211298280197    2.38521730208951   11.72007434049480
C         6.83965343656181    1.45238640607850   12.74050806931322
C         3.50755496913294    2.08194988741623    6.41804035584573
C         2.78687552264025    0.45173156754249    8.28836832396487
C         7.52568419637405    4.60629535463686   11.58359525895380
C         2.38594041755590    1.24094478856109    7.03678864942398
B         4.94148925555168    1.86522886361333    8.51497396867444
C         2.88168532609919    2.35948324592362   10.00097407294837
C         5.83143307296704    1.63169703965766   15.00700485878130
C         2.50312205905427    3.54254829042886    9.10241921958701
H         5.14980046209980    3.36811031218854    6.82763038646044
H         3.99271754726242    0.51905246942762   10.06831436159217
H         7.87488376481979    1.15277699568313   14.55212259914074
H         7.44798211095400    2.84941964684765   14.23715824771272
H         5.95325772205962    4.05760731700568   12.96725379477299
H         5.44062641596219    4.20070839181614   11.27105029409073
H         3.16129237961786    4.68864211824469    7.41472593785046
H         4.35091745716140    4.56504218795110    8.71097489302521
H         3.06294512092975    2.75708313221794    5.68090171597895
H         4.19017452087413    1.41592822123251    5.88502689194985
H         1.87715182379180    0.08618866395576    8.77654154019121
H         3.35989305869900   -0.42657044571779    7.97776547274800
H         7.38830738213670    5.67377733365791   11.73499357893640
H         8.35212478807050    4.26862928851300   12.20532939241802
H         7.78161038251168    4.43413785442649   10.54141678280785
H         2.03533431093521    0.52877941265901    6.28253806052962
H         1.53651229810231    1.87996334503725    7.26799003527828
H         1.96925397016504    1.96393255401712   10.45971865471506
H         3.51564368073710    2.72734014038714   10.81273206390245
H         6.02654927518672    1.89893963711840   16.04224690799184
H         5.51465160412115    0.59271402369346   14.97086620563282
H         5.02272788678998    2.25509408451980   14.63164650040986
H         1.60751878196458    3.29556979450742    8.53654770765545
H         2.23381107645376    4.38656377824283    9.74599715015160
O         5.73640139740415    0.73539507468494    7.87969850185173
N         6.12030043285128   -0.22639803183503    8.71622645457985
N         6.84436442383315   -1.83176979752188   10.47314323118431
O         7.23919746725137   -2.57667821679692   11.50307186399217
B         8.12430332999615   -1.86524950874304   12.51449160300212
C         8.70348227506856   -2.88248199941509   13.61631908270164
C         9.46040884828392   -4.00352777150067   12.88650368177232
C        10.56272417869665   -3.54242870257394   11.92691088292501
C        10.18404187365268   -2.35939552962407   11.02836508161824
C         9.42523610892260   -1.23834425210316   11.74305737412532
C        10.27885287606943   -0.45163834569536   12.74097373090692
C        10.67990120749506   -1.24084433506445   13.99252169619488
C         9.55836432885646   -2.08190159931699   14.61134259613421
H         7.91616136959350   -3.36814585345659   14.20184393261817
H        10.00304842324298   -2.75701378254461   15.34845525807750
H         8.87573968518205   -1.41591379198867   15.14439241290539
H        11.03051511578576   -0.52866140790104   14.74675203135935
H        11.52934554623156   -1.87982461537911   13.76126456520095
H        11.18853449109633   -0.08605885889908   12.25274966056559
H         9.70581513103985    0.42663912150330   13.05161374673721
H         9.07293559428568   -0.51901129914929   10.96108506212658
H        11.09642935635549   -1.96379776290974   10.56957409646599
H         9.55005925218080   -2.72729066881648   10.21664183196536
H        11.45834172405961   -3.29539096793622   12.49273720235261
H        10.83204845151372   -4.38642864856179   11.28331839930033
H         9.90470753108628   -4.68856893116332   13.61463570515527
H         8.71500351443674   -4.56502990801088   12.31845148618446
C         6.65357095865397   -2.38529051898017    9.30945492179389
C         6.82815424149544   -3.85626440311647    9.09502808487332
C         5.53998361517978   -4.60635237768102    9.44599782441673
H         5.67734505354112   -5.67383668504199    9.29460140088541
H         4.71352202193264   -4.26868143768306    8.82429425584671
H         5.28410205190974   -4.43418442595727   10.48818536886968
H         7.11236413056027   -4.05769560518709    8.06227665382304
H         7.62505600648822   -4.20077996344120    9.75846481235415
C         6.22603192241890   -1.45245767365947    8.28902229771801
C         5.96679866645670   -1.81929392252162    6.86134671573244
C         7.23423642421706   -1.63182668274615    6.02252022650168
H         7.03910995682932   -1.89907321086949    4.98728131108631
H         7.55105315811936   -0.59285414710814    6.05864773682360
H         8.04292231827489   -2.25524621901202    6.39788262211851
H         5.19080177926769   -1.15283964423201    6.47740194912866
H         5.61765096493225   -2.84948905437165    6.79238843516920

