76
CSD_code = IKIDEN | q = 0 | S = 0 | Stoichiometry = C26H44ClIrOP2S | MND = 5
Ir        6.53062359451227    4.41223551684785    3.87166845464066
H         7.45082707562168    3.92942916345179    4.97935678471325
Cl        4.58134110880414    5.35989221736795    4.80948050129311
O         6.45692314097084    1.61704140198674    2.54676405382874
P         7.71615842002989    6.38127252859236    3.63178843990815
P         5.50851205127937    2.36933068745988    3.63384913875485
S         9.44520186075233    5.85567007632036    2.56374511481013
C         7.85241909379838    3.58726550421228    2.57681222648231
C         8.96685840610830    4.22359547171535    2.03078987301796
C         9.75104045440769    3.63116318769786    1.04903531729207
H        10.60228274221019    4.16564979581863    0.65746316721008
C         9.43342396782817    2.36789287927050    0.58993335101819
H        10.04133889208236    1.90009320847336   -0.16857210426256
C         8.32954000056015    1.70329196728717    1.09809124579519
H         8.05715960716947    0.71901351411508    0.75029717769382
C         7.56083512743946    2.31411812910928    2.07443971550253
C         6.85884947931882    7.56666109705678    2.42057449055399
C         6.25395873188497    6.60970256599965    1.38725506151526
H         5.67299987206463    7.16136816089570    0.64886285886806
H         5.58032653299831    5.90054565778689    1.87391907670046
H         7.03177596408739    6.05456511552476    0.86046223989463
C         7.78914530521511    8.54141338711988    1.70349464899620
H         8.64997883387973    8.02628181025133    1.28142321364542
H         8.14435247780925    9.32616178416717    2.36351565473954
H         7.24323811718418    9.01394947915400    0.88731694596813
C         5.73592367226819    8.31090074970644    3.13662007727263
H         5.07710108457413    8.77621816562513    2.40366255022599
H         6.12898713548320    9.09742603340584    3.77686148276828
H         5.14212914516412    7.62732806157998    3.74239394958594
C         8.44963023160442    7.26881650704109    5.12994730065731
C         9.44448871067836    6.28829347464293    5.75592225780153
H         9.77172596010208    6.66526306670645    6.72302614150280
H        10.32004441269850    6.15921452660700    5.12374515941591
H         8.97627304096411    5.31532248057390    5.90597232909391
C         9.17292164082490    8.56286008704925    4.77102247984748
H         8.47257946075159    9.34556948552095    4.49093251850147
H         9.87635440931605    8.39862314322600    3.95618730118332
H         9.73219481859505    8.91380768971966    5.63742008872483
C         7.31748150894277    7.52015978585117    6.12371613767381
H         7.72703995340391    7.86391849483103    7.07223022619824
H         6.76226980960028    6.60026998175821    6.30022424282847
H         6.62160354191061    8.27210093121911    5.76357098055208
C         5.42585024946278    1.09286397648511    4.96907149995346
H         5.04067316290441    0.16124912287013    4.53743758475650
C         4.50551692049543    1.58548121810428    6.08250358719808
H         3.49176014265535    1.72971219209734    5.70143280580527
H         4.86955421800002    2.55419856016352    6.43418620954745
C         4.48096631671529    0.59325563724168    7.24149555273547
H         3.83872226098214    0.97436141401685    8.03771009043521
H         4.06071192079703   -0.35576951686140    6.89787709223303
C         5.89041492966893    0.35825315373238    7.77484527448209
H         6.29038825553405    1.29737613033949    8.16212002727599
H         5.86267793643405   -0.36109945660800    8.59577722947671
C         6.79814598837626   -0.15416990304442    6.66107632253216
H         7.80873883151477   -0.30919487449718    7.04318217613407
H         6.42453049856493   -1.11628964197340    6.30160261456067
C         6.83342623666935    0.84309774400380    5.50714219069250
H         7.47458571524334    0.46990394770595    4.70556872549404
H         7.25298352521417    1.79111571129870    5.85566023616482
C         3.85746152443849    2.28183364220309    2.78839650567713
H         3.10266299142386    2.54595645039270    3.53711720636192
C         3.85085518226808    3.34434964004365    1.68928165774520
H         3.98520375615092    4.32888456611076    2.14550611708901
H         4.68424139151926    3.16079614126102    1.00136035175312
C         2.53930654631701    3.33218814241936    0.91178965138406
H         2.57661329451904    4.07860768850908    0.11502170273494
H         1.72073151938320    3.60085072169855    1.58397984016563
C         2.28006465345739    1.94910430422484    0.32485104669029
H         1.33271133600200    1.94559274943053   -0.21805262576179
H         3.07391752280520    1.69924065790098   -0.38330667671919
C         2.24701429317647    0.90783320244054    1.43837465748876
H         1.42693686336822    1.13771695256839    2.12335790129892
H         2.06452691749607   -0.08395911757440    1.01890220168466
C         3.56479861746267    0.89955451688657    2.21042504334019
H         3.50715523414528    0.15710541835483    3.00866475076755
H         4.37829185223052    0.61360193550509    1.53951957589242

